data_image0
_chemical_formula_structural       O24
_chemical_formula_sum              "O24"
_cell_length_a       6.65259782
_cell_length_b       6.76810209
_cell_length_c       7.45043691
_cell_angle_alpha    90.0
_cell_angle_beta     90.0
_cell_angle_gamma    90.0

_space_group_name_H-M_alt    "P 1"
_space_group_IT_number       1

loop_
  _space_group_symop_operation_xyz
  'x, y, z'

loop_
  _atom_site_type_symbol
  _atom_site_label
  _atom_site_symmetry_multiplicity
  _atom_site_fract_x
  _atom_site_fract_y
  _atom_site_fract_z
  _atom_site_occupancy
  O   O1        1.0  0.7656855400000002  0.36535769000000007  0.014498200000000003  1.0000
  O   O2        1.0  0.45621934  0.9510571800000002  0.68682577  1.0000
  O   O3        1.0  0.26568554  0.13464231  0.9855018  1.0000
  O   O4        1.0  0.73431446  0.63464231  0.5144982000000001  1.0000
  O   O5        1.0  0.26568554  0.36535769000000007  0.48550180000000004  1.0000
  O   O6        1.0  0.15399171000000006  0.18474189000000002  0.11781934000000002  1.0000
  O   O7        1.0  0.65399171  0.18474189000000002  0.38218066000000006  1.0000
  O   O8        1.0  0.04378066  0.04894282000000001  0.18682577  1.0000
  O   O9        1.0  0.9562193400000002  0.54894282  0.31317423  1.0000
  O   O10       1.0  0.04378066  0.45105718000000006  0.68682577  1.0000
  O   O11       1.0  0.54378066  0.04894282000000001  0.31317423  1.0000
  O   O12       1.0  0.7656855400000002  0.13464231  0.5144982  1.0000
  O   O13       1.0  0.23431446000000006  0.63464231  0.9855018000000001  1.0000
  O   O14       1.0  0.9562193400000002  0.9510571800000002  0.81317423  1.0000
  O   O15       1.0  0.45621934  0.54894282  0.18682577  1.0000
  O   O16       1.0  0.65399171  0.31525811  0.8821806600000002  1.0000
  O   O17       1.0  0.34600829  0.8152581100000001  0.6178193400000002  1.0000
  O   O18       1.0  0.73431446  0.86535769  0.014498200000000003  1.0000
  O   O19       1.0  0.84600829  0.6847418900000002  0.3821806600000001  1.0000
  O   O20       1.0  0.15399171000000006  0.31525811  0.6178193400000003  1.0000
  O   O21       1.0  0.23431446000000006  0.86535769  0.4855018000000001  1.0000
  O   O22       1.0  0.54378066  0.45105718000000006  0.8131742300000001  1.0000
  O   O23       1.0  0.84600829  0.8152581100000001  0.8821806600000002  1.0000
  O   O24       1.0  0.34600829  0.6847418900000002  0.11781934000000002  1.0000
data_image1
_chemical_formula_structural       O24
_chemical_formula_sum              "O24"
_cell_length_a       6.65259782
_cell_length_b       6.76810209
_cell_length_c       7.45043691
_cell_angle_alpha    90.0
_cell_angle_beta     90.0
_cell_angle_gamma    90.0

_space_group_name_H-M_alt    "P 1"
_space_group_IT_number       1

loop_
  _space_group_symop_operation_xyz
  'x, y, z'

loop_
  _atom_site_type_symbol
  _atom_site_label
  _atom_site_symmetry_multiplicity
  _atom_site_fract_x
  _atom_site_fract_y
  _atom_site_fract_z
  _atom_site_occupancy
  O   O1        1.0  0.7570688704696974  0.40739415553372954  0.9921529564787518  1.0000
  O   O2        1.0  0.4259517543769593  0.9367909125776693  0.7722959620302241  1.0000
  O   O3        1.0  0.3505778742976725  0.11313132211217469  0.9831266748998323  1.0000
  O   O4        1.0  0.76307709074356  0.5267223875045168  0.478060762277569  1.0000
  O   O5        1.0  0.28521844496869714  0.36702026030521556  0.5321115472355739  1.0000
  O   O6        1.0  0.22224149670206927  0.16590806726172558  0.10989142634935577  1.0000
  O   O7        1.0  0.6504163916225848  0.16253801132508325  0.44784478459073274  1.0000
  O   O8        1.0  0.03649475106565124  0.09798420812421864  0.090568983538455  1.0000
  O   O9        1.0  0.9565131096163393  0.5634103507368067  0.24094610266970765  1.0000
  O   O10       1.0  0.026217723658438823  0.4017200850786916  0.7123736169681211  1.0000
  O   O11       1.0  0.6415610006450827  0.15324906999502633  0.2796321325650183  1.0000
  O   O12       1.0  0.7818457549307449  0.053254637534236815  0.5335030506527605  1.0000
  O   O13       1.0  0.25922691652174895  0.6294627939783255  0.9966420027341458  1.0000
  O   O14       1.0  0.015290476010799248  0.8272237462429854  0.8964862479597765  1.0000
  O   O15       1.0  0.3176437490185295  0.49213197373461676  0.2441771610006165  1.0000
  O   O16       1.0  0.598838270859589  0.394839707030929  0.8914886328193355  1.0000
  O   O17       1.0  0.29265345937424925  0.8906312828719721  0.6366210195648114  1.0000
  O   O18       1.0  0.7078655637754271  0.9326400811557067  0.9292145374102933  1.0000
  O   O19       1.0  0.7937732613215646  0.6475888251847493  0.3423818340089997  1.0000
  O   O20       1.0  0.10129362850961217  0.3007750397990748  0.5913491231166762  1.0000
  O   O21       1.0  0.17738012372790324  0.9958258993817994  0.5394554916157657  1.0000
  O   O22       1.0  0.6093929727449431  0.520781546265529  0.7527465405824795  1.0000
  O   O23       1.0  0.8278970244936146  0.8025242978087678  0.8708549705059804  1.0000
  O   O24       1.0  0.4015602905445021  0.6164513384564666  0.13607443842498973  1.0000
data_image2
_chemical_formula_structural       O24
_chemical_formula_sum              "O24"
_cell_length_a       6.65259782
_cell_length_b       6.76810209
_cell_length_c       7.45043691
_cell_angle_alpha    90.0
_cell_angle_beta     90.0
_cell_angle_gamma    90.0

_space_group_name_H-M_alt    "P 1"
_space_group_IT_number       1

loop_
  _space_group_symop_operation_xyz
  'x, y, z'

loop_
  _atom_site_type_symbol
  _atom_site_label
  _atom_site_symmetry_multiplicity
  _atom_site_fract_x
  _atom_site_fract_y
  _atom_site_fract_z
  _atom_site_occupancy
  O   O1        1.0  0.6807416991210073  0.32794033594998245  0.013770642766825967  1.0000
  O   O2        1.0  0.4257234252787402  0.9244147820622133  0.6524881187750196  1.0000
  O   O3        1.0  0.3545371848812113  0.17672165241163643  0.9947911079658593  1.0000
  O   O4        1.0  0.822383454298822  0.5177459127962117  0.385331302284382  1.0000
  O   O5        1.0  0.21512720545305966  0.350239494524872  0.558351902440669  1.0000
  O   O6        1.0  0.17815973051989006  0.15054322957618652  0.07035649023178228  1.0000
  O   O7        1.0  0.6959826003794738  0.047165787819165236  0.4608585142960635  1.0000
  O   O8        1.0  0.037262517981394704  0.25900274807928786  0.0011775681637814206  1.0000
  O   O9        1.0  0.9638725976631756  0.6763447390500225  0.17182715946551197  1.0000
  O   O10       1.0  0.04953911284696632  0.1477780999147693  0.7439809323567153  1.0000
  O   O11       1.0  0.6330890762996682  0.22840369576795297  0.44950305342487556  1.0000
  O   O12       1.0  0.8564674519795036  0.0527934137015584  0.5489070742724262  1.0000
  O   O13       1.0  0.2722470382773045  0.5576435076178772  0.015091951675812565  1.0000
  O   O14       1.0  0.015887641569444888  0.9492128915070704  0.8865786216534555  1.0000
  O   O15       1.0  0.25484055593315347  0.58223348113132  0.3020480879080511  1.0000
  O   O16       1.0  0.6346175446716512  0.3773289739043994  0.8462901262242399  1.0000
  O   O17       1.0  0.27020136473129674  0.8080917051840679  0.6574598304905347  1.0000
  O   O18       1.0  0.7102666952808487  0.9177592583930541  0.9128701739598406  1.0000
  O   O19       1.0  0.8347631085258479  0.6725246419078461  0.27988241106418976  1.0000
  O   O20       1.0  0.13114908233097358  0.45719016518811467  0.6744970424406369  1.0000
  O   O21       1.0  0.09070329467565116  0.8196371328467484  0.5469804478119527  1.0000
  O   O22       1.0  0.6356914125620233  0.5535970938402608  0.7803158248091653  1.0000
  O   O23       1.0  0.872548116680606  0.8253262430679051  0.873971867380286  1.0000
  O   O24       1.0  0.36419808805826964  0.62036101375752  0.17266974813782107  1.0000
data_image3
_chemical_formula_structural       O24
_chemical_formula_sum              "O24"
_cell_length_a       6.65259782
_cell_length_b       6.76810209
_cell_length_c       7.45043691
_cell_angle_alpha    90.0
_cell_angle_beta     90.0
_cell_angle_gamma    90.0

_space_group_name_H-M_alt    "P 1"
_space_group_IT_number       1

loop_
  _space_group_symop_operation_xyz
  'x, y, z'

loop_
  _atom_site_type_symbol
  _atom_site_label
  _atom_site_symmetry_multiplicity
  _atom_site_fract_x
  _atom_site_fract_y
  _atom_site_fract_z
  _atom_site_occupancy
  O   O1        1.0  0.8069563121944869  0.3215249872680508  0.9049809306052641  1.0000
  O   O2        1.0  0.32297451872604027  0.00653548750700117  0.6731530829206369  1.0000
  O   O3        1.0  0.4201367098065928  0.13987153902712396  0.015006246762042652  1.0000
  O   O4        1.0  0.8902562914914566  0.4500556460877025  0.37059099963618924  1.0000
  O   O5        1.0  0.17667601948318445  0.28969912521259444  0.5608689993875609  1.0000
  O   O6        1.0  0.3590302689461382  0.16395239778475543  0.18200009249396548  1.0000
  O   O7        1.0  0.6195579399422994  0.08308117170122252  0.4006127035278368  1.0000
  O   O8        1.0  0.16344583574515725  0.2625760048313584  0.1439073791907635  1.0000
  O   O9        1.0  0.8236903887192308  0.7349699696748779  0.21712768448302627  1.0000
  O   O10       1.0  0.9811991820106073  0.03602248865356784  0.8860466761700324  1.0000
  O   O11       1.0  0.5914714248840662  0.19802777725092757  0.5624565749040682  1.0000
  O   O12       1.0  0.7907852725938272  0.029636525761198483  0.40304751248261456  1.0000
  O   O13       1.0  0.28712176508043535  0.5912757196789229  0.010552980547541946  1.0000
  O   O14       1.0  0.13926068967817118  0.9494600772311345  0.9362782279927262  1.0000
  O   O15       1.0  0.3608101989233362  0.660794640135768  0.28749148497258054  1.0000
  O   O16       1.0  0.66462411687649  0.3638852022311907  0.8142209550734373  1.0000
  O   O17       1.0  0.277292390580496  0.8235100039585357  0.6631027752709642  1.0000
  O   O18       1.0  0.6274505049890121  0.9694128341256997  0.8678633650493445  1.0000
  O   O19       1.0  0.7668151799291808  0.5843690787623197  0.32678652949224146  1.0000
  O   O20       1.0  0.21757912839952362  0.4379894540529505  0.6421714523753862  1.0000
  O   O21       1.0  0.1395697964538879  0.7587002816870262  0.5448980083915728  1.0000
  O   O22       1.0  0.6831312153271341  0.5280059828477104  0.7430329058058432  1.0000
  O   O23       1.0  0.6234811560211274  0.8993975096900458  0.7142986262115149  1.0000
  O   O24       1.0  0.26668369319811613  0.7172460948384219  0.12950380625270277  1.0000
data_image4
_chemical_formula_structural       O24
_chemical_formula_sum              "O24"
_cell_length_a       6.65259782
_cell_length_b       6.76810209
_cell_length_c       7.45043691
_cell_angle_alpha    90.0
_cell_angle_beta     90.0
_cell_angle_gamma    90.0

_space_group_name_H-M_alt    "P 1"
_space_group_IT_number       1

loop_
  _space_group_symop_operation_xyz
  'x, y, z'

loop_
  _atom_site_type_symbol
  _atom_site_label
  _atom_site_symmetry_multiplicity
  _atom_site_fract_x
  _atom_site_fract_y
  _atom_site_fract_z
  _atom_site_occupancy
  O   O1        1.0  0.8940117127922911  0.4951520162975045  0.8375072485070187  1.0000
  O   O2        1.0  0.28977011795665214  0.9971862153726706  0.5881681866257895  1.0000
  O   O3        1.0  0.3009421436180386  0.11539044105086996  0.9912837845687086  1.0000
  O   O4        1.0  0.8072710239309285  0.4680097976990704  0.2919084992661059  1.0000
  O   O5        1.0  0.12758499356452727  0.354314118961282  0.6406554830305646  1.0000
  O   O6        1.0  0.2821485413766665  0.1096707816693681  0.1746225464696561  1.0000
  O   O7        1.0  0.6252379413096824  0.131258103930477  0.45886880409308145  1.0000
  O   O8        1.0  0.18598327600885303  0.223611204809881  0.2611335413954214  1.0000
  O   O9        1.0  0.6911779512866543  0.7016764086716482  0.10559085231228532  1.0000
  O   O10       1.0  0.006089163294395651  0.8539230493003711  0.12722285951734746  1.0000
  O   O11       1.0  0.7916641273177977  0.2150328064820644  0.5326436063214514  1.0000
  O   O12       1.0  0.6751443429034903  0.002135759845003506  0.35019929733976085  1.0000
  O   O13       1.0  0.35192348314826  0.5821554248494559  0.073761782574435  1.0000
  O   O14       1.0  0.062202234301051096  0.8618595933457353  0.963350046077738  1.0000
  O   O15       1.0  0.3412056952421404  0.5294093104750223  0.3709198308747236  1.0000
  O   O16       1.0  0.7541745934731664  0.5844012508859887  0.7674823365074073  1.0000
  O   O17       1.0  0.2517622164533718  0.8213584758391634  0.6658683237841955  1.0000
  O   O18       1.0  0.6476404113827945  0.07433661944847669  0.7574458081077091  1.0000
  O   O19       1.0  0.7850187973626759  0.6599505862191098  0.25686915139447963  1.0000
  O   O20       1.0  0.30493223813111814  0.3999157528271372  0.6813094571353997  1.0000
  O   O21       1.0  0.10941189752948814  0.7356438171971  0.5763517969500364  1.0000
  O   O22       1.0  0.728788599249658  0.5368419293810583  0.5900211760613643  1.0000
  O   O23       1.0  0.7088679766852397  0.9130454958998326  0.705742144721244  1.0000
  O   O24       1.0  0.27704652168110677  0.6337210395418685  0.23107343636387143  1.0000
data_image5
_chemical_formula_structural       O24
_chemical_formula_sum              "O24"
_cell_length_a       6.65259782
_cell_length_b       6.76810209
_cell_length_c       7.45043691
_cell_angle_alpha    90.0
_cell_angle_beta     90.0
_cell_angle_gamma    90.0

_space_group_name_H-M_alt    "P 1"
_space_group_IT_number       1

loop_
  _space_group_symop_operation_xyz
  'x, y, z'

loop_
  _atom_site_type_symbol
  _atom_site_label
  _atom_site_symmetry_multiplicity
  _atom_site_fract_x
  _atom_site_fract_y
  _atom_site_fract_z
  _atom_site_occupancy
  O   O1        1.0  0.860643110539319  0.5458677371349652  0.8100821856918923  1.0000
  O   O2        1.0  0.36227416169005977  0.9172261925470002  0.6991458082342118  1.0000
  O   O3        1.0  0.05727082182620966  0.15571287433034203  0.16183078072520485  1.0000
  O   O4        1.0  0.7946637768268288  0.43518613837311465  0.08012615576898857  1.0000
  O   O5        1.0  0.2817102040772469  0.3930889342893764  0.7238882882287072  1.0000
  O   O6        1.0  0.24026521758976843  0.09735739335732929  0.19550091993078345  1.0000
  O   O7        1.0  0.6561786027106665  0.10469022639902151  0.4441270519497183  1.0000
  O   O8        1.0  0.26204471673030294  0.09191809740167121  0.3555053485892848  1.0000
  O   O9        1.0  0.7083926991598397  0.7639432761314813  0.11527452477618734  1.0000
  O   O10       1.0  0.07613720305215582  0.8076895243002529  0.20980472763799352  1.0000
  O   O11       1.0  0.7716018267658911  0.21782986794513243  0.3556372867856479  1.0000
  O   O12       1.0  0.6149802328820234  0.9096294082938657  0.33730875628350326  1.0000
  O   O13       1.0  0.32560770722154453  0.6011803142759276  0.04494295661379932  1.0000
  O   O14       1.0  0.06138265400803378  0.7173124212975278  0.06496182500477055  1.0000
  O   O15       1.0  0.45357974412179847  0.37445987387988877  0.2891976057824997  1.0000
  O   O16       1.0  0.708740130199697  0.6404002080396359  0.7669335366382337  1.0000
  O   O17       1.0  0.19839114863833002  0.8485300775642539  0.6256380169234846  1.0000
  O   O18       1.0  0.6939133587660821  0.13134020490625997  0.8145291096835865  1.0000
  O   O19       1.0  0.6967456247666624  0.5819939962443952  0.1722934763304085  1.0000
  O   O20       1.0  0.24096115602072182  0.4949440945451597  0.6095366272619663  1.0000
  O   O21       1.0  0.09021694971855092  0.952542755779817  0.5001406750443275  1.0000
  O   O22       1.0  0.6395194338250706  0.5853080260701943  0.6038261647784021  1.0000
  O   O23       1.0  0.8654490099680755  0.1104131556346637  0.7944010412755141  1.0000
  O   O24       1.0  0.339330508895168  0.5214352012589173  0.22536713006063755  1.0000
data_image6
_chemical_formula_structural       O24
_chemical_formula_sum              "O24"
_cell_length_a       6.65259782
_cell_length_b       6.76810209
_cell_length_c       7.45043691
_cell_angle_alpha    90.0
_cell_angle_beta     90.0
_cell_angle_gamma    90.0

_space_group_name_H-M_alt    "P 1"
_space_group_IT_number       1

loop_
  _space_group_symop_operation_xyz
  'x, y, z'

loop_
  _atom_site_type_symbol
  _atom_site_label
  _atom_site_symmetry_multiplicity
  _atom_site_fract_x
  _atom_site_fract_y
  _atom_site_fract_z
  _atom_site_occupancy
  O   O1        1.0  0.918234634004818  0.4675125970028894  0.9404183946115917  1.0000
  O   O2        1.0  0.2743470338121095  0.7319931762806837  0.6768774666594483  1.0000
  O   O3        1.0  0.9825803424992752  0.16633014046856073  0.2842405292555521  1.0000
  O   O4        1.0  0.7529590214262328  0.3655948308788293  0.9157858590084834  1.0000
  O   O5        1.0  0.4504548529821925  0.31202616239770237  0.6743524777015055  1.0000
  O   O6        1.0  0.17236031022217768  0.13987132022393167  0.23913533514380975  1.0000
  O   O7        1.0  0.6519691642370179  0.07481144695286478  0.481410526439637  1.0000
  O   O8        1.0  0.2878223470785191  0.11801713093416918  0.3689759163269343  1.0000
  O   O9        1.0  0.7409385677862855  0.779351612261609  0.11307764161327694  1.0000
  O   O10       1.0  0.08239074750969666  0.7390942047640428  0.14899487629303998  1.0000
  O   O11       1.0  0.6953800161017485  0.22539373199747692  0.37564840797749816  1.0000
  O   O12       1.0  0.6274531692726555  0.9013916870609939  0.396904030961068  1.0000
  O   O13       1.0  0.43894252057744754  0.6075488671404308  0.9697195106239309  1.0000
  O   O14       1.0  0.02540621795584541  0.868927069874699  0.051479387476705885  1.0000
  O   O15       1.0  0.396436609419584  0.4140933605090028  0.18744470611227296  1.0000
  O   O16       1.0  0.612393518826217  0.8646817239530079  0.6735117129120943  1.0000
  O   O17       1.0  0.17319986977040724  0.8111078057866242  0.5539275895932314  1.0000
  O   O18       1.0  0.7124080042507241  0.011991239646553131  0.9317412866968873  1.0000
  O   O19       1.0  0.8190163890976805  0.6315317943132808  0.18512098893825055  1.0000
  O   O20       1.0  0.27372319746032464  0.3739905318507418  0.6276575976710862  1.0000
  O   O21       1.0  0.0441320846759153  0.9431729839462468  0.5974919973420034  1.0000
  O   O22       1.0  0.6238010109497562  0.7402594643143112  0.5576164111591525  1.0000
  O   O23       1.0  0.8735343013645185  0.11431365779079106  0.9100309294458383  1.0000
  O   O24       1.0  0.3701160687188835  0.5969934596507509  0.13843642003649945  1.0000
data_image7
_chemical_formula_structural       O24
_chemical_formula_sum              "O24"
_cell_length_a       6.65259782
_cell_length_b       6.76810209
_cell_length_c       7.45043691
_cell_angle_alpha    90.0
_cell_angle_beta     90.0
_cell_angle_gamma    90.0

_space_group_name_H-M_alt    "P 1"
_space_group_IT_number       1

loop_
  _space_group_symop_operation_xyz
  'x, y, z'

loop_
  _atom_site_type_symbol
  _atom_site_label
  _atom_site_symmetry_multiplicity
  _atom_site_fract_x
  _atom_site_fract_y
  _atom_site_fract_z
  _atom_site_occupancy
  O   O1        1.0  0.022172333191243565  0.3805778671896422  0.9056485024550673  1.0000
  O   O2        1.0  0.14046948640683024  0.5564308473300374  0.6834330906993884  1.0000
  O   O3        1.0  0.9429480681844182  0.16875624366781658  0.26779693072540534  1.0000
  O   O4        1.0  0.9443789131847793  0.5255708702392279  0.8346688036443435  1.0000
  O   O5        1.0  0.39508816173697814  0.3482757849362059  0.7469734063432625  1.0000
  O   O6        1.0  0.12113076661850881  0.19070064033848053  0.26649639564329086  1.0000
  O   O7        1.0  0.7013953748466645  0.1870189871717343  0.45308169559148087  1.0000
  O   O8        1.0  0.17555303829335792  0.21994700490030467  0.43453834429690924  1.0000
  O   O9        1.0  0.8251609051876393  0.6908898085598529  0.08383523231670217  1.0000
  O   O10       1.0  0.11587953215856936  0.9099301351337248  0.10127699924830602  1.0000
  O   O11       1.0  0.6554086605625512  0.36501670752503523  0.4609403838386864  1.0000
  O   O12       1.0  0.6493754439274921  0.06540381006884921  0.3277888667512986  1.0000
  O   O13       1.0  0.477879304871219  0.549155292125708  0.889829833013632  1.0000
  O   O14       1.0  0.11009243478549546  0.7559223516528225  0.009141775380155481  1.0000
  O   O15       1.0  0.23861686007164232  0.5530870227041236  0.1331017494329077  1.0000
  O   O16       1.0  0.6199290482815142  0.8130935713173871  0.767890129000745  1.0000
  O   O17       1.0  0.19427554980595418  0.6609626671572233  0.5095764550391024  1.0000
  O   O18       1.0  0.6513382790776084  0.24599065230639683  0.9860295035724885  1.0000
  O   O19       1.0  0.889373802028516  0.5817700243971867  0.19013410285547105  1.0000
  O   O20       1.0  0.357733987069599  0.18155674122481608  0.7941241146878659  1.0000
  O   O21       1.0  0.04635570514356088  0.8024925532977559  0.47428317908512413  1.0000
  O   O22       1.0  0.719323322692973  0.7357029964341079  0.6459210405611872  1.0000
  O   O23       1.0  0.6473371972223594  0.06961366332020713  0.005658459799143367  1.0000
  O   O24       1.0  0.3587838246506026  0.4421337570015348  0.02783100601785895  1.0000
data_image8
_chemical_formula_structural       O24
_chemical_formula_sum              "O24"
_cell_length_a       6.65259782
_cell_length_b       6.76810209
_cell_length_c       7.45043691
_cell_angle_alpha    90.0
_cell_angle_beta     90.0
_cell_angle_gamma    90.0

_space_group_name_H-M_alt    "P 1"
_space_group_IT_number       1

loop_
  _space_group_symop_operation_xyz
  'x, y, z'

loop_
  _atom_site_type_symbol
  _atom_site_label
  _atom_site_symmetry_multiplicity
  _atom_site_fract_x
  _atom_site_fract_y
  _atom_site_fract_z
  _atom_site_occupancy
  O   O1        1.0  0.12299342733248997  0.4395019357815793  0.8825936170498767  1.0000
  O   O2        1.0  0.3444811758937011  0.6376102616873192  0.4741578897378839  1.0000
  O   O3        1.0  0.923632728306911  0.25611842562975284  0.16925822034966753  1.0000
  O   O4        1.0  0.9523766761900428  0.47636811231282666  0.9334166580803646  1.0000
  O   O5        1.0  0.4752515684916443  0.13275570115799515  0.736801353473169  1.0000
  O   O6        1.0  0.01367455733937476  0.08028691771655252  0.31352653089066435  1.0000
  O   O7        1.0  0.7140939508506561  0.23327463919501318  0.4823950199796215  1.0000
  O   O8        1.0  0.02510418858690284  0.18903762864655202  0.4529154609268961  1.0000
  O   O9        1.0  0.8148270969913154  0.8214148003572816  0.1487343388134805  1.0000
  O   O10       1.0  0.0859854457491922  0.7953957811417389  0.038801508012362484  1.0000
  O   O11       1.0  0.6015247700535394  0.39686384850418466  0.5102551782299802  1.0000
  O   O12       1.0  0.6621052191780603  0.11805712787773512  0.32769198503102415  1.0000
  O   O13       1.0  0.42740610418262476  0.40321139858851507  0.9816819892412099  1.0000
  O   O14       1.0  0.13876932728313762  0.7473411745105719  0.8790754152380652  1.0000
  O   O15       1.0  0.3027586951818007  0.5221171169675538  0.22231918677949863  1.0000
  O   O16       1.0  0.5665984252857463  0.8527309925916937  0.6501014958216168  1.0000
  O   O17       1.0  0.15599767362553837  0.6211795674757319  0.5161237222674759  1.0000
  O   O18       1.0  0.6784892535589587  0.058123793870036744  0.910773204866711  1.0000
  O   O19       1.0  0.8549512372164149  0.6899020700999927  0.2829957429947489  1.0000
  O   O20       1.0  0.3280088709693972  0.1118646842668441  0.8276111426789834  1.0000
  O   O21       1.0  0.10604220695737018  0.8322911457669571  0.4677939471167665  1.0000
  O   O22       1.0  0.7155631200435836  0.8297556918780956  0.7094922112538771  1.0000
  O   O23       1.0  0.6402381437856981  0.18916620018588293  0.017837254577587336  1.0000
  O   O24       1.0  0.34912613694598965  0.5656309837897303  0.0636469265882861  1.0000
data_image9
_chemical_formula_structural       O24
_chemical_formula_sum              "O24"
_cell_length_a       6.65259782
_cell_length_b       6.76810209
_cell_length_c       7.45043691
_cell_angle_alpha    90.0
_cell_angle_beta     90.0
_cell_angle_gamma    90.0

_space_group_name_H-M_alt    "P 1"
_space_group_IT_number       1

loop_
  _space_group_symop_operation_xyz
  'x, y, z'

loop_
  _atom_site_type_symbol
  _atom_site_label
  _atom_site_symmetry_multiplicity
  _atom_site_fract_x
  _atom_site_fract_y
  _atom_site_fract_z
  _atom_site_occupancy
  O   O1        1.0  0.9775424475478162  0.4969666441759631  0.851434016949826  1.0000
  O   O2        1.0  0.2931226729655344  0.6145593407981779  0.41576609768542805  1.0000
  O   O3        1.0  0.0462106495298786  0.3021835423470946  0.22933247377780175  1.0000
  O   O4        1.0  0.9195634962305462  0.5348040494388605  0.9942892780410408  1.0000
  O   O5        1.0  0.2993531468350927  0.16772240166779687  0.7075260473524102  1.0000
  O   O6        1.0  0.9852938261173603  0.18701441031664792  0.34457167513870046  1.0000
  O   O7        1.0  0.6455549369236169  0.15525356298792936  0.5073471501105735  1.0000
  O   O8        1.0  0.11909801322229632  0.2083330212302804  0.47010473446955764  1.0000
  O   O9        1.0  0.7350216662244482  0.7209521132499254  0.2912697989777589  1.0000
  O   O10       1.0  0.050604027846872734  0.8075910487642005  0.9514986387052885  1.0000
  O   O11       1.0  0.6760935274192686  0.35639036357769355  0.4907940383103664  1.0000
  O   O12       1.0  0.5795379343012148  0.09702791529052986  0.343888150684794  1.0000
  O   O13       1.0  0.40316302221096884  0.7083239653435973  0.9725138775994433  1.0000
  O   O14       1.0  0.04544681802087869  0.8751808496174278  0.7912154084931574  1.0000
  O   O15       1.0  0.3654037957392307  0.4463231299738034  0.15308658942045517  1.0000
  O   O16       1.0  0.7538979883677052  0.698715906803173  0.6222458088751018  1.0000
  O   O17       1.0  0.15215648057789852  0.6780210288143874  0.5151232359113365  1.0000
  O   O18       1.0  0.7626348145968459  0.21899248087197232  0.012751159562608957  1.0000
  O   O19       1.0  0.8449732438188304  0.5784561043447439  0.3237793686833869  1.0000
  O   O20       1.0  0.40892033809059236  0.031089351634057513  0.6986656801256479  1.0000
  O   O21       1.0  0.1503562799832632  0.8636436280647481  0.48608680543473975  1.0000
  O   O22       1.0  0.6997080864818603  0.5743798002892587  0.734196821373777  1.0000
  O   O23       1.0  0.6001882355370375  0.12467966394381924  0.03627189032670852  1.0000
  O   O24       1.0  0.4861545514110119  0.5533956764540084  0.056241253989926146  1.0000
data_image10
_chemical_formula_structural       O24
_chemical_formula_sum              "O24"
_cell_length_a       6.65259782
_cell_length_b       6.76810209
_cell_length_c       7.45043691
_cell_angle_alpha    90.0
_cell_angle_beta     90.0
_cell_angle_gamma    90.0

_space_group_name_H-M_alt    "P 1"
_space_group_IT_number       1

loop_
  _space_group_symop_operation_xyz
  'x, y, z'

loop_
  _atom_site_type_symbol
  _atom_site_label
  _atom_site_symmetry_multiplicity
  _atom_site_fract_x
  _atom_site_fract_y
  _atom_site_fract_z
  _atom_site_occupancy
  O   O1        1.0  0.9853242888056333  0.48471140236197247  0.8784157690323843  1.0000
  O   O2        1.0  0.2810214154610736  0.5362196471069894  0.20445424786317173  1.0000
  O   O3        1.0  0.01752907235088925  0.18410521662312115  0.2999591025526993  1.0000
  O   O4        1.0  0.9276743717425106  0.6534742804375138  0.9246474775460173  1.0000
  O   O5        1.0  0.3049144702885956  0.15470111489978258  0.7995882089904087  1.0000
  O   O6        1.0  0.03856486277212173  0.18519668804203623  0.46865902229914735  1.0000
  O   O7        1.0  0.5631104230489361  0.08941986772081645  0.5239438216058896  1.0000
  O   O8        1.0  0.07610604487968184  0.3530491370914535  0.5477168702684039  1.0000
  O   O9        1.0  0.6336489738589967  0.6107049535756937  0.37618915172671613  1.0000
  O   O10       1.0  0.10479401810854584  0.9152097267246772  0.058953478751053945  1.0000
  O   O11       1.0  0.6738413022869995  0.21227447111458944  0.42852224159722574  1.0000
  O   O12       1.0  0.5087405233137903  0.9364631323829771  0.41050986457594074  1.0000
  O   O13       1.0  0.44296865887426523  0.8119014677587942  0.9495040535055648  1.0000
  O   O14       1.0  0.008522163134327965  0.9108600713817769  0.9145675496894581  1.0000
  O   O15       1.0  0.4558245793738776  0.46199845768814757  0.9594155453722432  1.0000
  O   O16       1.0  0.8970917040178816  0.7485156758664985  0.6478935844995672  1.0000
  O   O17       1.0  0.2907419727816442  0.6806803747023101  0.3340591258427016  1.0000
  O   O18       1.0  0.5792546682737818  0.08771960185263894  0.13234085968901324  1.0000
  O   O19       1.0  0.7826939952074184  0.6783795291117262  0.2987464947742269  1.0000
  O   O20       1.0  0.31303883266593285  0.9794365922285937  0.7309519993056416  1.0000
  O   O21       1.0  0.11009229103198231  0.815209167706505  0.32192251022341495  1.0000
  O   O22       1.0  0.7133306527318952  0.6927280508257387  0.65445499535065  1.0000
  O   O23       1.0  0.7475345698653977  0.1834059008318225  0.14474065142284154  1.0000
  O   O24       1.0  0.5436361451238039  0.6336354719638534  0.9898433735154897  1.0000
data_image11
_chemical_formula_structural       O24
_chemical_formula_sum              "O24"
_cell_length_a       6.65259782
_cell_length_b       6.76810209
_cell_length_c       7.45043691
_cell_angle_alpha    90.0
_cell_angle_beta     90.0
_cell_angle_gamma    90.0

_space_group_name_H-M_alt    "P 1"
_space_group_IT_number       1

loop_
  _space_group_symop_operation_xyz
  'x, y, z'

loop_
  _atom_site_type_symbol
  _atom_site_label
  _atom_site_symmetry_multiplicity
  _atom_site_fract_x
  _atom_site_fract_y
  _atom_site_fract_z
  _atom_site_occupancy
  O   O1        1.0  0.09367967075300832  0.6322730935799896  0.8975808697147208  1.0000
  O   O2        1.0  0.18245426697218067  0.3644065837859267  0.2412582898773941  1.0000
  O   O3        1.0  0.9702329890177791  0.12970563349681719  0.4259700552463721  1.0000
  O   O4        1.0  0.9333271314274292  0.5677628095554427  0.9777452511111284  1.0000
  O   O5        1.0  0.25172565560213433  0.12202167042652765  0.8256137373446453  1.0000
  O   O6        1.0  0.12073120705336005  0.1669666427666173  0.5275747952352904  1.0000
  O   O7        1.0  0.5382747768630752  0.04076976281967431  0.47491269487580856  1.0000
  O   O8        1.0  0.1420349303754385  0.3201971348967649  0.6242312039275804  1.0000
  O   O9        1.0  0.697068766403516  0.5857675053981164  0.24339545192664055  1.0000
  O   O10       1.0  0.13756766930500766  0.030737493696806336  0.13416754685809185  1.0000
  O   O11       1.0  0.5226563557354457  0.21541019563047767  0.5343677305499247  1.0000
  O   O12       1.0  0.4492735613223362  0.010877729380708155  0.32339281505818435  1.0000
  O   O13       1.0  0.4927589000513375  0.8021114099375377  0.8936279961755598  1.0000
  O   O14       1.0  0.0007918086617166864  0.988616569689641  0.03749878241451876  1.0000
  O   O15       1.0  0.5957839885636842  0.4999903617248625  0.8739697917131037  1.0000
  O   O16       1.0  0.9435545554588124  0.8011582070278758  0.6936885796247609  1.0000
  O   O17       1.0  0.2307280476413742  0.5733955486208133  0.19925605089866305  1.0000
  O   O18       1.0  0.6566955550131766  0.11373040420836578  0.09714371323042702  1.0000
  O   O19       1.0  0.7749944232855536  0.7431985579016813  0.2704572239806029  1.0000
  O   O20       1.0  0.21396710979307285  0.9541157919241366  0.786767082546968  1.0000
  O   O21       1.0  0.19081703380229606  0.6552576473084208  0.38893875596612876  1.0000
  O   O22       1.0  0.8059174968409254  0.8372623110502221  0.59143508663595  1.0000
  O   O23       1.0  0.523881776769984  0.21535986224401404  0.15728912853353827  1.0000
  O   O24       1.0  0.531082323287284  0.628907072928527  0.7797173665538788  1.0000
data_image12
_chemical_formula_structural       O24
_chemical_formula_sum              "O24"
_cell_length_a       6.65259782
_cell_length_b       6.76810209
_cell_length_c       7.45043691
_cell_angle_alpha    90.0
_cell_angle_beta     90.0
_cell_angle_gamma    90.0

_space_group_name_H-M_alt    "P 1"
_space_group_IT_number       1

loop_
  _space_group_symop_operation_xyz
  'x, y, z'

loop_
  _atom_site_type_symbol
  _atom_site_label
  _atom_site_symmetry_multiplicity
  _atom_site_fract_x
  _atom_site_fract_y
  _atom_site_fract_z
  _atom_site_occupancy
  O   O1        1.0  0.10805197777406272  0.5559677643720058  0.9668763317628289  1.0000
  O   O2        1.0  0.07492230043760127  0.44666301429089517  0.25317948319308825  1.0000
  O   O3        1.0  0.8770007016651516  0.1396156171058202  0.4319734772048289  1.0000
  O   O4        1.0  0.9264223546353845  0.6010317047859403  0.9859982307657981  1.0000
  O   O5        1.0  0.1758581665058587  0.1953589136467702  0.8606429420948266  1.0000
  O   O6        1.0  0.04921598511587732  0.12551898236871165  0.5442535477820324  1.0000
  O   O7        1.0  0.42486541578000564  0.142292460608544  0.4229838262581967  1.0000
  O   O8        1.0  0.09056249403966367  0.3000683819143341  0.6213094006953062  1.0000
  O   O9        1.0  0.609307402700138  0.6375738244545918  0.15909971409069157  1.0000
  O   O10       1.0  0.13860757419345002  0.056121133491824425  0.2364634333701725  1.0000
  O   O11       1.0  0.5821292223891368  0.22815020366882596  0.5076102027847228  1.0000
  O   O12       1.0  0.49280213227754155  0.0003911422137616146  0.3096154050597517  1.0000
  O   O13       1.0  0.6466038372099633  0.7841837494050367  0.8532359478759192  1.0000
  O   O14       1.0  0.10438116919960527  0.9209401074356419  0.12891318929730033  1.0000
  O   O15       1.0  0.6269391796961346  0.46820843435323073  0.7425414874706433  1.0000
  O   O16       1.0  0.976678551923289  0.7405797733552101  0.560950898523778  1.0000
  O   O17       1.0  0.2420751261918263  0.5458566676945303  0.28623045441732303  1.0000
  O   O18       1.0  0.6580647413278122  0.12722523231504024  0.08266707858022106  1.0000
  O   O19       1.0  0.6865160260791543  0.5732651121815917  0.27682875048821887  1.0000
  O   O20       1.0  0.3427628985173666  0.10285299106613373  0.838013165162299  1.0000
  O   O21       1.0  0.29641089866060893  0.6328595087864692  0.4486938955543309  1.0000
  O   O22       1.0  0.8061595655198573  0.7982585969700834  0.6224607723312372  1.0000
  O   O23       1.0  0.5395398430213743  0.2616062702589017  0.05397554801448057  1.0000
  O   O24       1.0  0.5241224351390539  0.6154104132560063  0.8054828172219434  1.0000
data_image13
_chemical_formula_structural       O24
_chemical_formula_sum              "O24"
_cell_length_a       6.65259782
_cell_length_b       6.76810209
_cell_length_c       7.45043691
_cell_angle_alpha    90.0
_cell_angle_beta     90.0
_cell_angle_gamma    90.0

_space_group_name_H-M_alt    "P 1"
_space_group_IT_number       1

loop_
  _space_group_symop_operation_xyz
  'x, y, z'

loop_
  _atom_site_type_symbol
  _atom_site_label
  _atom_site_symmetry_multiplicity
  _atom_site_fract_x
  _atom_site_fract_y
  _atom_site_fract_z
  _atom_site_occupancy
  O   O1        1.0  0.9886767409170087  0.5930794000727335  0.8572727396008802  1.0000
  O   O2        1.0  0.1847652781700226  0.3881624100012606  0.3406433325566188  1.0000
  O   O3        1.0  0.9137759361401954  0.11684089517821425  0.43238450731434996  1.0000
  O   O4        1.0  0.9815557519691039  0.4922568894976051  0.9977969748667562  1.0000
  O   O5        1.0  0.16179577594430125  0.12223463112754163  0.9036464780422772  1.0000
  O   O6        1.0  0.9717206036718737  0.1572108212700384  0.5881562305225098  1.0000
  O   O7        1.0  0.5383139169228981  0.0665112907572391  0.49906320417139605  1.0000
  O   O8        1.0  0.025444541751860623  0.35110387788111913  0.5914067084713487  1.0000
  O   O9        1.0  0.48707643533239847  0.6694816149975641  0.16210910369354126  1.0000
  O   O10       1.0  0.15651066727710453  0.026421411637815778  0.20200480715261482  1.0000
  O   O11       1.0  0.5089639831999574  0.26180348248380636  0.49288213899366645  1.0000
  O   O12       1.0  0.5184121743746201  0.9944980587842193  0.33607021604426585  1.0000
  O   O13       1.0  0.3602242774423093  0.761285009027407  0.7741571900230682  1.0000
  O   O14       1.0  0.03441297989658265  0.9038551081157898  0.2313820556792594  1.0000
  O   O15       1.0  0.6465900916807146  0.6315493753115972  0.7641317042844735  1.0000
  O   O16       1.0  0.9254209630438742  0.7345899534250049  0.4701312220242371  1.0000
  O   O17       1.0  0.22515959938005872  0.5726344853346313  0.35124666638820545  1.0000
  O   O18       1.0  0.8106830384296111  0.23251774596392805  0.10883937954308934  1.0000
  O   O19       1.0  0.6407567655916921  0.5661025615777323  0.18922114982155996  1.0000
  O   O20       1.0  0.35359730796324906  0.10719308027590316  0.9076171258110527  1.0000
  O   O21       1.0  0.44887363892978716  0.5567231684897597  0.44336182301545174  1.0000
  O   O22       1.0  0.9863282778217928  0.810456426776728  0.5985795792488297  1.0000
  O   O23       1.0  0.6812533596986  0.28350364553916574  0.003738318686861808  1.0000
  O   O24       1.0  0.4496878944503025  0.5999846564730663  0.7541573440436902  1.0000
data_image14
_chemical_formula_structural       O24
_chemical_formula_sum              "O24"
_cell_length_a       6.65259782
_cell_length_b       6.76810209
_cell_length_c       7.45043691
_cell_angle_alpha    90.0
_cell_angle_beta     90.0
_cell_angle_gamma    90.0

_space_group_name_H-M_alt    "P 1"
_space_group_IT_number       1

loop_
  _space_group_symop_operation_xyz
  'x, y, z'

loop_
  _atom_site_type_symbol
  _atom_site_label
  _atom_site_symmetry_multiplicity
  _atom_site_fract_x
  _atom_site_fract_y
  _atom_site_fract_z
  _atom_site_occupancy
  O   O1        1.0  0.03217146296084117  0.47395595486921793  0.9895236455457246  1.0000
  O   O2        1.0  0.2739068628982663  0.3641380112649726  0.22866251496389584  1.0000
  O   O3        1.0  0.7615972367995715  0.24729633513691474  0.49860721984038237  1.0000
  O   O4        1.0  0.15618881419230335  0.610214625737792  0.9852822488348223  1.0000
  O   O5        1.0  0.2916692726574647  0.1979585398960741  0.9885554519715785  1.0000
  O   O6        1.0  0.9520058170006426  0.1768467102064178  0.5433818233053781  1.0000
  O   O7        1.0  0.47416716145850607  0.9709110648003213  0.48134487811260673  1.0000
  O   O8        1.0  0.10352972438154685  0.292467661612329  0.5779578495026235  1.0000
  O   O9        1.0  0.5463969183791032  0.6629600404434958  0.19578923373956592  1.0000
  O   O10       1.0  0.12561129870861995  0.9353937313229764  0.18118626407861638  1.0000
  O   O11       1.0  0.36166805923289913  0.1488738129018647  0.49387738327239067  1.0000
  O   O12       1.0  0.6089996751068916  0.9874300765173255  0.36129103456855227  1.0000
  O   O13       1.0  0.2749040323778223  0.7333596401907777  0.6911273667466656  1.0000
  O   O14       1.0  0.019300946319215084  0.980660647130239  0.03530049727269757  1.0000
  O   O15       1.0  0.5365896302418015  0.8234323865270414  0.7754579064837436  1.0000
  O   O16       1.0  0.8467752064936708  0.615045788610462  0.5205098827360085  1.0000
  O   O17       1.0  0.29105235565329773  0.47547255732371113  0.3786109293570183  1.0000
  O   O18       1.0  0.7567719868632036  0.22208329161085016  0.14060885282121854  1.0000
  O   O19       1.0  0.733700313373081  0.6886845960464916  0.14243530135291477  1.0000
  O   O20       1.0  0.3548395281481097  0.06838651833831416  0.08181837134621417  1.0000
  O   O21       1.0  0.47621401420364273  0.5392516120248639  0.43084663597192  1.0000
  O   O22       1.0  0.92094507121922  0.7831121032751985  0.5046933029686691  1.0000
  O   O23       1.0  0.6576593610188096  0.33119612666967524  0.05409238337676037  1.0000
  O   O24       1.0  0.443335250311385  0.6708681675425643  0.719039021830071  1.0000
data_image15
_chemical_formula_structural       O24
_chemical_formula_sum              "O24"
_cell_length_a       6.65259782
_cell_length_b       6.76810209
_cell_length_c       7.45043691
_cell_angle_alpha    90.0
_cell_angle_beta     90.0
_cell_angle_gamma    90.0

_space_group_name_H-M_alt    "P 1"
_space_group_IT_number       1

loop_
  _space_group_symop_operation_xyz
  'x, y, z'

loop_
  _atom_site_type_symbol
  _atom_site_label
  _atom_site_symmetry_multiplicity
  _atom_site_fract_x
  _atom_site_fract_y
  _atom_site_fract_z
  _atom_site_occupancy
  O   O1        1.0  0.053242700334961146  0.5879584001360918  0.933944735726047  1.0000
  O   O2        1.0  0.17409190313979786  0.3661328058616283  0.34082178669046903  1.0000
  O   O3        1.0  0.7998525126080689  0.35022092096642  0.5916985701595068  1.0000
  O   O4        1.0  0.19471565790930034  0.6774723964944557  0.003860597902531557  1.0000
  O   O5        1.0  0.3155658786089267  0.10697148398018955  0.8840844435910789  1.0000
  O   O6        1.0  0.9610946883487315  0.2500449645758172  0.5140090593023918  1.0000
  O   O7        1.0  0.41603926749773157  0.9539307734786059  0.42356100541664155  1.0000
  O   O8        1.0  0.035759894482520496  0.08005578729167781  0.5775382724236202  1.0000
  O   O9        1.0  0.5765258308299057  0.6899301109274897  0.2022680156912879  1.0000
  O   O10       1.0  0.03237333622803513  0.9248808840566309  0.0938477268987501  1.0000
  O   O11       1.0  0.31997253519315  0.04676586802112742  0.5283268864448929  1.0000
  O   O12       1.0  0.6150686907510415  0.90095329682004  0.47301732119062356  1.0000
  O   O13       1.0  0.3173841728102146  0.7155265728922481  0.5832302458897712  1.0000
  O   O14       1.0  0.9895273429497207  0.8954742669095316  0.9386133466283834  1.0000
  O   O15       1.0  0.47269212896631924  0.7732598079189628  0.8671961512393745  1.0000
  O   O16       1.0  0.8844837930507247  0.7038312566805758  0.5945339056609205  1.0000
  O   O17       1.0  0.26216318929692084  0.5270680859358505  0.3680437527619296  1.0000
  O   O18       1.0  0.7272924643375493  0.24803434367918853  0.22688414346101235  1.0000
  O   O19       1.0  0.68546277504961  0.8275317912210701  0.14162728907245928  1.0000
  O   O20       1.0  0.4807235852372265  0.08751443085838269  0.9641882814281915  1.0000
  O   O21       1.0  0.5788167620263704  0.5254026347191155  0.5181175778654442  1.0000
  O   O22       1.0  0.8776040621916762  0.5990069774839667  0.4492749974163662  1.0000
  O   O23       1.0  0.7600107212508738  0.381409756453964  0.10097151400918247  1.0000
  O   O24       1.0  0.46953610690052955  0.7806223826369311  0.6803403731291567  1.0000
data_image16
_chemical_formula_structural       O24
_chemical_formula_sum              "O24"
_cell_length_a       6.65259782
_cell_length_b       6.76810209
_cell_length_c       7.45043691
_cell_angle_alpha    90.0
_cell_angle_beta     90.0
_cell_angle_gamma    90.0

_space_group_name_H-M_alt    "P 1"
_space_group_IT_number       1

loop_
  _space_group_symop_operation_xyz
  'x, y, z'

loop_
  _atom_site_type_symbol
  _atom_site_label
  _atom_site_symmetry_multiplicity
  _atom_site_fract_x
  _atom_site_fract_y
  _atom_site_fract_z
  _atom_site_occupancy
  O   O1        1.0  0.991473453653596  0.5667770615365162  0.9549149911159374  1.0000
  O   O2        1.0  0.38034649677726184  0.42518655282345813  0.33776174661856656  1.0000
  O   O3        1.0  0.8358538063589669  0.5120493751691682  0.7481958694758057  1.0000
  O   O4        1.0  0.050810432694411434  0.43660512017351255  0.049262892175926824  1.0000
  O   O5        1.0  0.41431963141079287  0.10500024188924419  0.9006530841589862  1.0000
  O   O6        1.0  0.7464689711870083  0.17135696722425633  0.578507870410792  1.0000
  O   O7        1.0  0.4163225463901206  0.0767007511277963  0.35800984584776135  1.0000
  O   O8        1.0  0.9334614244142592  0.16753397480155832  0.6172583377071859  1.0000
  O   O9        1.0  0.5433290233816875  0.6615570798793863  0.2671861255596089  1.0000
  O   O10       1.0  0.06637622051394314  0.9135105266914931  0.03115388725576418  1.0000
  O   O11       1.0  0.28556069520264027  0.08599174534296995  0.46912098661713514  1.0000
  O   O12       1.0  0.6103290905176065  0.9941235539359013  0.46640047842359356  1.0000
  O   O13       1.0  0.2905880339708632  0.6502598436635446  0.6749259907228635  1.0000
  O   O14       1.0  0.9877829315811387  0.9913455055247187  0.9099253409288831  1.0000
  O   O15       1.0  0.6043860492251432  0.7344371739664681  0.7735462790302012  1.0000
  O   O16       1.0  0.9513808962738608  0.6899283449938888  0.4509859576563158  1.0000
  O   O17       1.0  0.2503118062799811  0.4206460057784965  0.4460770029950461  1.0000
  O   O18       1.0  0.7193458286923066  0.28613383596771813  0.2734557097090989  1.0000
  O   O19       1.0  0.6300703221968164  0.728634164660746  0.1311384014566048  1.0000
  O   O20       1.0  0.5528184367935559  0.19842914274989917  0.8396242590927261  1.0000
  O   O21       1.0  0.6856692131610012  0.545414886079873  0.6108413117010366  1.0000
  O   O22       1.0  0.8666731138643378  0.6166966576820463  0.32785640815851425  1.0000
  O   O23       1.0  0.7478075963358458  0.25571021230204916  0.10287025109726544  1.0000
  O   O24       1.0  0.4385139791227512  0.7659712760353066  0.6803269720843954  1.0000
data_image17
_chemical_formula_structural       O24
_chemical_formula_sum              "O24"
_cell_length_a       6.65259782
_cell_length_b       6.76810209
_cell_length_c       7.45043691
_cell_angle_alpha    90.0
_cell_angle_beta     90.0
_cell_angle_gamma    90.0

_space_group_name_H-M_alt    "P 1"
_space_group_IT_number       1

loop_
  _space_group_symop_operation_xyz
  'x, y, z'

loop_
  _atom_site_type_symbol
  _atom_site_label
  _atom_site_symmetry_multiplicity
  _atom_site_fract_x
  _atom_site_fract_y
  _atom_site_fract_z
  _atom_site_occupancy
  O   O1        1.0  0.9356588039621517  0.39113182831983573  0.007172034601727548  1.0000
  O   O2        1.0  0.3944752656005134  0.38393737060744565  0.4282846838841796  1.0000
  O   O3        1.0  0.8081238790279898  0.554219807952874  0.6557270141153233  1.0000
  O   O4        1.0  0.09083299654207355  0.4077245929142097  0.0834177058154531  1.0000
  O   O5        1.0  0.3851916257470761  0.20172503633409583  0.06050877353530182  1.0000
  O   O6        1.0  0.8632289079517849  0.17734836570582077  0.642886779210725  1.0000
  O   O7        1.0  0.3863561055785238  0.0039062086927234914  0.3421413746888167  1.0000
  O   O8        1.0  0.9195953687129598  0.29592994484078766  0.5233041706227254  1.0000
  O   O9        1.0  0.6518943183906114  0.6465830608695757  0.11467212870191021  1.0000
  O   O10       1.0  0.08721361163461043  0.021825955365046674  0.03504447132142219  1.0000
  O   O11       1.0  0.24272732607560568  0.02281267394480663  0.4668148674070669  1.0000
  O   O12       1.0  0.5711181716372424  0.033599794567771825  0.38481528305828655  1.0000
  O   O13       1.0  0.1584364893209718  0.7091197202887227  0.6785181517208047  1.0000
  O   O14       1.0  0.994603135045621  0.9968290597421474  0.883976530555534  1.0000
  O   O15       1.0  0.47079224776944145  0.7554924486419667  0.6945716329900662  1.0000
  O   O16       1.0  0.047901032479433336  0.5290383253303299  0.36976183881825264  1.0000
  O   O17       1.0  0.5508383308493002  0.28633476290716287  0.49918070137530074  1.0000
  O   O18       1.0  0.7243903244231262  0.3524360315048023  0.16679183285591845  1.0000
  O   O19       1.0  0.46258535580662297  0.6318297410605429  0.09198574600147656  1.0000
  O   O20       1.0  0.45960608549622234  0.2941942590872563  0.9173095408553801  1.0000
  O   O21       1.0  0.719134322045714  0.6166133307258678  0.5079334674133058  1.0000
  O   O22       1.0  0.9833249412620761  0.6847200134618938  0.41427751873431  1.0000
  O   O23       1.0  0.7906332755691119  0.2045985795332923  0.2500671969730133  1.0000
  O   O24       1.0  0.3013380790711113  0.7980490876010446  0.780836554743764  1.0000
data_image18
_chemical_formula_structural       O24
_chemical_formula_sum              "O24"
_cell_length_a       6.65259782
_cell_length_b       6.76810209
_cell_length_c       7.45043691
_cell_angle_alpha    90.0
_cell_angle_beta     90.0
_cell_angle_gamma    90.0

_space_group_name_H-M_alt    "P 1"
_space_group_IT_number       1

loop_
  _space_group_symop_operation_xyz
  'x, y, z'

loop_
  _atom_site_type_symbol
  _atom_site_label
  _atom_site_symmetry_multiplicity
  _atom_site_fract_x
  _atom_site_fract_y
  _atom_site_fract_z
  _atom_site_occupancy
  O   O1        1.0  0.10065356710526574  0.26071007330490537  0.974240601735103  1.0000
  O   O2        1.0  0.41593121930291405  0.4169115642551807  0.589641579038292  1.0000
  O   O3        1.0  0.7914056820771258  0.573583094522391  0.5697081130183366  1.0000
  O   O4        1.0  0.9585351253878681  0.35923154460617024  0.975373152549322  1.0000
  O   O5        1.0  0.41139200036107054  0.28544207092475965  0.035458004494785644  1.0000
  O   O6        1.0  0.9182264372109118  0.17167925194935074  0.6287520539680511  1.0000
  O   O7        1.0  0.3541080581574948  0.7962198692953776  0.2656282455296261  1.0000
  O   O8        1.0  0.036498390863267755  0.2693599075935185  0.6960751902376308  1.0000
  O   O9        1.0  0.6193422955788628  0.66933159960613  0.8670333399519499  1.0000
  O   O10       1.0  0.09358084901509144  0.06273939500663235  0.1464468054400374  1.0000
  O   O11       1.0  0.27627320945801703  0.8806834604259351  0.3990756040600993  1.0000
  O   O12       1.0  0.5624893711015978  0.8809102688948143  0.20382520541163626  1.0000
  O   O13       1.0  0.10826006591561008  0.7879132530126245  0.799725773301036  1.0000
  O   O14       1.0  0.04251170745163124  0.8933672724931634  0.10542451688358612  1.0000
  O   O15       1.0  0.430280719336206  0.8672667589422848  0.7070152642830974  1.0000
  O   O16       1.0  0.9423497921988214  0.7667239522383539  0.35134681069996954  1.0000
  O   O17       1.0  0.5143330333375421  0.2628151954677665  0.6150094462148569  1.0000
  O   O18       1.0  0.6810344319306768  0.31951565485814326  0.30405347188660625  1.0000
  O   O19       1.0  0.4666592073064437  0.6739682877955149  0.9639723969739548  1.0000
  O   O20       1.0  0.44302624794169493  0.35307192333198656  0.8971528294168337  1.0000
  O   O21       1.0  0.6697480112154247  0.624042306037438  0.4708398476120063  1.0000
  O   O22       1.0  0.017630357803430696  0.6038205932797925  0.3616080765796782  1.0000
  O   O23       1.0  0.8592139683283503  0.2931717614652647  0.2521259775863556  1.0000
  O   O24       1.0  0.28651625161462085  0.9275209406924625  0.8204676931272399  1.0000
data_image19
_chemical_formula_structural       O24
_chemical_formula_sum              "O24"
_cell_length_a       6.65259782
_cell_length_b       6.76810209
_cell_length_c       7.45043691
_cell_angle_alpha    90.0
_cell_angle_beta     90.0
_cell_angle_gamma    90.0

_space_group_name_H-M_alt    "P 1"
_space_group_IT_number       1

loop_
  _space_group_symop_operation_xyz
  'x, y, z'

loop_
  _atom_site_type_symbol
  _atom_site_label
  _atom_site_symmetry_multiplicity
  _atom_site_fract_x
  _atom_site_fract_y
  _atom_site_fract_z
  _atom_site_occupancy
  O   O1        1.0  0.07913462300402907  0.3293135069669404  0.07406217968678817  1.0000
  O   O2        1.0  0.261183914877191  0.4040927090864638  0.6826105966555805  1.0000
  O   O3        1.0  0.7319580930136624  0.53581502609759  0.6497257239586482  1.0000
  O   O4        1.0  0.9922078576253517  0.26095236475771194  0.9254787594561488  1.0000
  O   O5        1.0  0.4686027055870358  0.371204526759354  0.0959154703297529  1.0000
  O   O6        1.0  0.04468650173198192  0.10251545561509397  0.4913032525212906  1.0000
  O   O7        1.0  0.371203695482088  0.7567256607509952  0.1603370319777068  1.0000
  O   O8        1.0  0.966254496812216  0.2420856545877277  0.5877316476374599  1.0000
  O   O9        1.0  0.668234979344833  0.7463234416991495  0.8369652386032166  1.0000
  O   O10       1.0  0.11671412184735072  0.9545703236756361  0.09628998928058219  1.0000
  O   O11       1.0  0.3774638398800045  0.7349448811706334  0.3462258172652066  1.0000
  O   O12       1.0  0.4268639687505807  0.9340833854884603  0.12752209897969644  1.0000
  O   O13       1.0  0.09064935671311776  0.9883496443318882  0.7276949808291313  1.0000
  O   O14       1.0  0.07401223582912264  0.7775751434049901  0.09671990350159265  1.0000
  O   O15       1.0  0.41935206598804486  0.9406081150845175  0.7360824630466565  1.0000
  O   O16       1.0  0.021736888184253234  0.699846789755153  0.4842350742915434  1.0000
  O   O17       1.0  0.4154473469479052  0.40962872356775615  0.5956670521074021  1.0000
  O   O18       1.0  0.5828251609827868  0.18558478306493198  0.3504119523720145  1.0000
  O   O19       1.0  0.5013621891457404  0.687074193785334  0.8611996843410188  1.0000
  O   O20       1.0  0.6465030717280554  0.3453372059285035  0.03488166026965733  1.0000
  O   O21       1.0  0.6398559755557446  0.6112253636185143  0.5264527611160988  1.0000
  O   O22       1.0  0.10014249830336297  0.6221631976055232  0.3445449171478078  1.0000
  O   O23       1.0  0.7250276105747966  0.29955040813228284  0.37301963241755387  1.0000
  O   O24       1.0  0.278576802090739  0.06042949506494133  0.7949221122075714  1.0000
data_image20
_chemical_formula_structural       O24
_chemical_formula_sum              "O24"
_cell_length_a       6.65259782
_cell_length_b       6.76810209
_cell_length_c       7.45043691
_cell_angle_alpha    90.0
_cell_angle_beta     90.0
_cell_angle_gamma    90.0

_space_group_name_H-M_alt    "P 1"
_space_group_IT_number       1

loop_
  _space_group_symop_operation_xyz
  'x, y, z'

loop_
  _atom_site_type_symbol
  _atom_site_label
  _atom_site_symmetry_multiplicity
  _atom_site_fract_x
  _atom_site_fract_y
  _atom_site_fract_z
  _atom_site_occupancy
  O   O1        1.0  0.03183392200472168  0.3588199789954746  0.08565132771104403  1.0000
  O   O2        1.0  0.12006318690587249  0.44879760676399133  0.7029683409834483  1.0000
  O   O3        1.0  0.7185039257884491  0.526977476084996  0.6507837696968086  1.0000
  O   O4        1.0  0.9520566848118847  0.20937406699358366  0.010173268529475326  1.0000
  O   O5        1.0  0.5752549254746299  0.3324785051617085  0.10857789586397781  1.0000
  O   O6        1.0  0.2545426111382309  0.2901374159045908  0.35201493063330114  1.0000
  O   O7        1.0  0.44392302692950336  0.7916013542843141  0.14343033474781422  1.0000
  O   O8        1.0  0.10436086042238588  0.24424581237456716  0.4363617269066229  1.0000
  O   O9        1.0  0.6448897068882493  0.7986699994443341  0.897558715899485  1.0000
  O   O10       1.0  0.04324711647344968  0.8449257409407483  0.19802265657922846  1.0000
  O   O11       1.0  0.4457047827268346  0.6929228534629754  0.2945011030426312  1.0000
  O   O12       1.0  0.3896469161732197  0.9815671404434325  0.13498156871804087  1.0000
  O   O13       1.0  0.19420157792259168  0.8282473261433222  0.8038556421216552  1.0000
  O   O14       1.0  0.05134677063574733  0.7299830209708328  0.07006996473076543  1.0000
  O   O15       1.0  0.4428935660559998  0.10764111088252215  0.8076477024874205  1.0000
  O   O16       1.0  0.9959252832651043  0.6896679191728422  0.49258736552475196  1.0000
  O   O17       1.0  0.28389212150044435  0.445966523352335  0.6009145235275932  1.0000
  O   O18       1.0  0.5579406401474913  0.1712173399611383  0.4363633014606047  1.0000
  O   O19       1.0  0.49829689465521876  0.8416708517855644  0.8097391520126525  1.0000
  O   O20       1.0  0.63707932963404  0.35423798591694156  0.9595319593733617  1.0000
  O   O21       1.0  0.7149601994017495  0.6637734587571177  0.5370571932841938  1.0000
  O   O22       1.0  0.09055450720438918  0.5775781924544864  0.38114405192382417  1.0000
  O   O23       1.0  0.5884137331116728  0.06607229834537387  0.31189447750546284  1.0000
  O   O24       1.0  0.220467710728187  0.003426021402989754  0.7741690267360338  1.0000
data_image21
_chemical_formula_structural       O24
_chemical_formula_sum              "O24"
_cell_length_a       6.65259782
_cell_length_b       6.76810209
_cell_length_c       7.45043691
_cell_angle_alpha    90.0
_cell_angle_beta     90.0
_cell_angle_gamma    90.0

_space_group_name_H-M_alt    "P 1"
_space_group_IT_number       1

loop_
  _space_group_symop_operation_xyz
  'x, y, z'

loop_
  _atom_site_type_symbol
  _atom_site_label
  _atom_site_symmetry_multiplicity
  _atom_site_fract_x
  _atom_site_fract_y
  _atom_site_fract_z
  _atom_site_occupancy
  O   O1        1.0  0.020681651778976295  0.368982211610071  0.9395521142002761  1.0000
  O   O2        1.0  0.2583292335845239  0.52896822908804  0.6442720042340079  1.0000
  O   O3        1.0  0.827475042941907  0.41978267807593295  0.657405437611803  1.0000
  O   O4        1.0  0.9233980488972986  0.20153023710368212  0.9742109828296535  1.0000
  O   O5        1.0  0.6849361048788078  0.3256049996063328  0.12061267308262491  1.0000
  O   O6        1.0  0.24187017700486368  0.22880250245562142  0.37645860519867436  1.0000
  O   O7        1.0  0.46287100463739517  0.7586154839850522  0.15151749369707723  1.0000
  O   O8        1.0  0.06592013192374296  0.26700743906107943  0.35212973537375675  1.0000
  O   O9        1.0  0.6672483939102001  0.8419662832532885  0.8238718626463145  1.0000
  O   O10       1.0  0.9735556682954826  0.8865191376203106  0.1304572471874621  1.0000
  O   O11       1.0  0.5170155864399723  0.6974291201942997  0.32134061297824423  1.0000
  O   O12       1.0  0.3200010499933346  0.8604635982774833  0.1656927031837451  1.0000
  O   O13       1.0  0.05718288623234861  0.8676399388388976  0.8137319977108965  1.0000
  O   O14       1.0  0.8912669904509354  0.7361352773994192  0.1769480525025262  1.0000
  O   O15       1.0  0.2087297206093383  0.15439700614331242  0.7864788975590653  1.0000
  O   O16       1.0  0.0007261865018124425  0.8354706875002306  0.48489045274191694  1.0000
  O   O17       1.0  0.40418588448193604  0.6074516770995103  0.7323656721939518  1.0000
  O   O18       1.0  0.575498050660427  0.07652986498818226  0.5397442837529176  1.0000
  O   O19       1.0  0.6643269522025735  0.7872820355718327  0.6691423116396449  1.0000
  O   O20       1.0  0.619437837038536  0.4435140172461215  0.0063853444884713895  1.0000
  O   O21       1.0  0.6911030699485584  0.4012017292416493  0.5439247898267197  1.0000
  O   O22       1.0  0.11476837841243626  0.6771333059306709  0.43255420274020673  1.0000
  O   O23       1.0  0.7010581862217683  0.007491982256327079  0.4330837265566243  1.0000
  O   O24       1.0  0.10841376295292351  0.020080557452886172  0.7232287960636143  1.0000
data_image22
_chemical_formula_structural       O24
_chemical_formula_sum              "O24"
_cell_length_a       6.65259782
_cell_length_b       6.76810209
_cell_length_c       7.45043691
_cell_angle_alpha    90.0
_cell_angle_beta     90.0
_cell_angle_gamma    90.0

_space_group_name_H-M_alt    "P 1"
_space_group_IT_number       1

loop_
  _space_group_symop_operation_xyz
  'x, y, z'

loop_
  _atom_site_type_symbol
  _atom_site_label
  _atom_site_symmetry_multiplicity
  _atom_site_fract_x
  _atom_site_fract_y
  _atom_site_fract_z
  _atom_site_occupancy
  O   O1        1.0  0.03762472838760833  0.4441180397014203  0.0660297869140755  1.0000
  O   O2        1.0  0.34916779612893695  0.42279494124138534  0.6565601908988218  1.0000
  O   O3        1.0  0.9279796489535383  0.33299085875169865  0.6106185039115877  1.0000
  O   O4        1.0  0.9214185678097689  0.32127529710643704  0.9862415815538528  1.0000
  O   O5        1.0  0.6570619179097118  0.283681025743329  0.13665639803537144  1.0000
  O   O6        1.0  0.03747552549115688  0.38256617579966057  0.3425344998308984  1.0000
  O   O7        1.0  0.4124237628667961  0.6623200334902359  0.21723557545030595  1.0000
  O   O8        1.0  0.038340979893661004  0.1904995927978116  0.3425332434771848  1.0000
  O   O9        1.0  0.6278556291710288  0.9039530493686886  0.7449829293929856  1.0000
  O   O10       1.0  0.8755834926769637  0.9145221052296751  0.10552268815626409  1.0000
  O   O11       1.0  0.5540432147249742  0.689501347875663  0.31609360373038553  1.0000
  O   O12       1.0  0.34437605184044423  0.8221590748425237  0.13478611687513214  1.0000
  O   O13       1.0  0.01872300624986158  0.7994545232798695  0.7971784567646968  1.0000
  O   O14       1.0  0.9752539637626625  0.7643854735225948  0.0835320570395992  1.0000
  O   O15       1.0  0.1318816172661588  0.047067414940429986  0.66337889845119  1.0000
  O   O16       1.0  0.22134992487654626  0.6772386379923508  0.4552272117856219  1.0000
  O   O17       1.0  0.40053897228051305  0.5580244419100959  0.7571912409617034  1.0000
  O   O18       1.0  0.5444601856635718  0.21251376934609678  0.49010088515093997  1.0000
  O   O19       1.0  0.7299562871932123  0.7607927580297883  0.7692700861849509  1.0000
  O   O20       1.0  0.5695585463068746  0.41870988312937274  0.039629723027203134  1.0000
  O   O21       1.0  0.9064585223162039  0.5104253504364585  0.577364091140271  1.0000
  O   O22       1.0  0.12448000200617648  0.8348719961578908  0.4294844216145716  1.0000
  O   O23       1.0  0.5966771989333496  0.03692552020380968  0.5033356445066679  1.0000
  O   O24       1.0  0.9973104572904377  0.009208689102932155  0.7745121651458353  1.0000
data_image23
_chemical_formula_structural       O24
_chemical_formula_sum              "O24"
_cell_length_a       6.65259782
_cell_length_b       6.76810209
_cell_length_c       7.45043691
_cell_angle_alpha    90.0
_cell_angle_beta     90.0
_cell_angle_gamma    90.0

_space_group_name_H-M_alt    "P 1"
_space_group_IT_number       1

loop_
  _space_group_symop_operation_xyz
  'x, y, z'

loop_
  _atom_site_type_symbol
  _atom_site_label
  _atom_site_symmetry_multiplicity
  _atom_site_fract_x
  _atom_site_fract_y
  _atom_site_fract_z
  _atom_site_occupancy
  O   O1        1.0  0.1322499287996044  0.37804021820045786  0.9655812416672528  1.0000
  O   O2        1.0  0.27240079034136794  0.3552779560354127  0.747520328139733  1.0000
  O   O3        1.0  0.001031668213124663  0.24038974594482077  0.6985082261813311  1.0000
  O   O4        1.0  0.0694057659752052  0.2113359509331804  0.981609359532485  1.0000
  O   O5        1.0  0.400996002209768  0.3932271055439178  0.12266283755473428  1.0000
  O   O6        1.0  0.23369380514512322  0.4211853945501  0.43136935925214215  1.0000
  O   O7        1.0  0.40049335933187036  0.7244895614497855  0.20812583384159358  1.0000
  O   O8        1.0  0.23596126161445707  0.2536000508638836  0.35953674955018095  1.0000
  O   O9        1.0  0.6950113174658464  0.8568677757556001  0.6235084485260565  1.0000
  O   O10       1.0  0.7997746918309223  0.9596237931142212  0.00302066935841383  1.0000
  O   O11       1.0  0.5769121124725102  0.7255364096388792  0.15260488736190897  1.0000
  O   O12       1.0  0.2348788516365307  0.7285765216808302  0.08103699809641916  1.0000
  O   O13       1.0  0.9993071409363071  0.7457876917769428  0.7810291806727961  1.0000
  O   O14       1.0  0.9187931176422433  0.8811011270177146  0.11536260881453897  1.0000
  O   O15       1.0  0.22156225030876478  0.022995227600546952  0.8776653337315078  1.0000
  O   O16       1.0  0.09147495334267042  0.8834851938875268  0.44848820500511394  1.0000
  O   O17       1.0  0.278698001825749  0.5345080879482865  0.7793485298654013  1.0000
  O   O18       1.0  0.7177735867260582  0.26788229996478696  0.42162187006061397  1.0000
  O   O19       1.0  0.7033454006699777  0.6838864081512631  0.6837709765980864  1.0000
  O   O20       1.0  0.5550941879163516  0.3992701029886716  0.02326456799161658  1.0000
  O   O21       1.0  0.9417870249018248  0.4079032148223454  0.7514151631633635  1.0000
  O   O22       1.0  0.9868205363985638  0.740931480903392  0.4528478287013031  1.0000
  O   O23       1.0  0.5449205123559143  0.2335966783167982  0.49042389214660265  1.0000
  O   O24       1.0  0.9876137319395125  0.9505020029107752  0.799676904186884  1.0000
data_image24
_chemical_formula_structural       O24
_chemical_formula_sum              "O24"
_cell_length_a       6.65259782
_cell_length_b       6.76810209
_cell_length_c       7.45043691
_cell_angle_alpha    90.0
_cell_angle_beta     90.0
_cell_angle_gamma    90.0

_space_group_name_H-M_alt    "P 1"
_space_group_IT_number       1

loop_
  _space_group_symop_operation_xyz
  'x, y, z'

loop_
  _atom_site_type_symbol
  _atom_site_label
  _atom_site_symmetry_multiplicity
  _atom_site_fract_x
  _atom_site_fract_y
  _atom_site_fract_z
  _atom_site_occupancy
  O   O1        1.0  0.982679064679599  0.3642559823715092  0.14405921742859348  1.0000
  O   O2        1.0  0.3359589772034259  0.2417820209490064  0.7952003723935471  1.0000
  O   O3        1.0  0.9388174374984865  0.29761879813496667  0.6511715373909273  1.0000
  O   O4        1.0  0.11100070886986635  0.22280192130372117  0.13754559466017244  1.0000
  O   O5        1.0  0.5061396648034635  0.3827419512053784  0.06673413979096199  1.0000
  O   O6        1.0  0.20895478009879023  0.376547264383672  0.3359934813361715  1.0000
  O   O7        1.0  0.3511373779751742  0.6261136063614869  0.16763946694837728  1.0000
  O   O8        1.0  0.24279800204472343  0.22228560492495508  0.4267015395210495  1.0000
  O   O9        1.0  0.5565825058408871  0.9677453466300542  0.5324548593198493  1.0000
  O   O10       1.0  0.7491503975853145  0.0850263499074128  0.19615355780815058  1.0000
  O   O11       1.0  0.4528224775886772  0.7531773976398376  0.05577416428110736  1.0000
  O   O12       1.0  0.1678904246411336  0.5998715587891971  0.11221940054368686  1.0000
  O   O13       1.0  0.054786939142756445  0.7472456209055103  0.8239894877177297  1.0000
  O   O14       1.0  0.8056287527156629  0.05790196644288037  0.03214186692107068  1.0000
  O   O15       1.0  0.33949693234520684  0.8750186198296608  0.8144158555449093  1.0000
  O   O16       1.0  0.04998325692612249  0.8449456392622755  0.4605249598802568  1.0000
  O   O17       1.0  0.32489465441810983  0.3944562039822381  0.8781161148454529  1.0000
  O   O18       1.0  0.7774789892801527  0.4461411727661755  0.349115236817554  1.0000
  O   O19       1.0  0.6713513632306589  0.8246564395378109  0.574450481384503  1.0000
  O   O20       1.0  0.6496190204191792  0.47877983295975146  0.024883226924422797  1.0000
  O   O21       1.0  0.7876110074781398  0.3470124395882654  0.7282511225244789  1.0000
  O   O22       1.0  0.03523066324235358  0.6562739575554918  0.4867334052102117  1.0000
  O   O23       1.0  0.7400919571956418  0.30471226674665663  0.4438951622021481  1.0000
  O   O24       1.0  0.15989464477679655  0.8828880378222064  0.7618357486047125  1.0000
data_image25
_chemical_formula_structural       O24
_chemical_formula_sum              "O24"
_cell_length_a       6.65259782
_cell_length_b       6.76810209
_cell_length_c       7.45043691
_cell_angle_alpha    90.0
_cell_angle_beta     90.0
_cell_angle_gamma    90.0

_space_group_name_H-M_alt    "P 1"
_space_group_IT_number       1

loop_
  _space_group_symop_operation_xyz
  'x, y, z'

loop_
  _atom_site_type_symbol
  _atom_site_label
  _atom_site_symmetry_multiplicity
  _atom_site_fract_x
  _atom_site_fract_y
  _atom_site_fract_z
  _atom_site_occupancy
  O   O1        1.0  0.12290524246913903  0.4012583410245129  0.13094862171491956  1.0000
  O   O2        1.0  0.3911244587865224  0.21196927609143337  0.8175536972598099  1.0000
  O   O3        1.0  0.7786363135760972  0.19449966239226804  0.7420309323299097  1.0000
  O   O4        1.0  0.1609300074945017  0.2177119605534437  0.12666220850475984  1.0000
  O   O5        1.0  0.563553088690209  0.31290125380850536  0.03283343474861944  1.0000
  O   O6        1.0  0.2524184555305745  0.37222361405473  0.5608085588996058  1.0000
  O   O7        1.0  0.26780806264124635  0.6797524850492987  0.18474990020855442  1.0000
  O   O8        1.0  0.13998870334025496  0.26106584627325896  0.4631322219281098  1.0000
  O   O9        1.0  0.4421779476135689  0.9197445340300546  0.4913838449378205  1.0000
  O   O10       1.0  0.7677034148462346  0.8729638297078227  0.18668029167151223  1.0000
  O   O11       1.0  0.44536041352546535  0.7660942128080146  0.2026060801253733  1.0000
  O   O12       1.0  0.11168807866529422  0.7477240177486484  0.11003338032928074  1.0000
  O   O13       1.0  0.057294686082564814  0.7860685626532902  0.7644413722116316  1.0000
  O   O14       1.0  0.758813984082256  0.005515056145343866  0.08029814729757434  1.0000
  O   O15       1.0  0.36187982715909994  0.7006555405642818  0.7532919367728954  1.0000
  O   O16       1.0  0.07780965830420317  0.844781395850419  0.3724283254227185  1.0000
  O   O17       1.0  0.35916353692597597  0.40203705129361983  0.7968064985013988  1.0000
  O   O18       1.0  0.8050526772648587  0.6187603436129678  0.41806787483745883  1.0000
  O   O19       1.0  0.6097628665406318  0.9402787377524378  0.5480582714769723  1.0000
  O   O20       1.0  0.6671792968112816  0.46317468702203  0.06799916771978243  1.0000
  O   O21       1.0  0.7281941287558271  0.2476927430509439  0.5707403206857686  1.0000
  O   O22       1.0  0.15954900225025948  0.7240792361410463  0.47670207683180854  1.0000
  O   O23       1.0  0.7403284186105943  0.45824661583107673  0.3692978358918866  1.0000
  O   O24       1.0  0.23067773003369074  0.8508009965406979  0.7324449996918405  1.0000
data_image26
_chemical_formula_structural       O24
_chemical_formula_sum              "O24"
_cell_length_a       6.65259782
_cell_length_b       6.76810209
_cell_length_c       7.45043691
_cell_angle_alpha    90.0
_cell_angle_beta     90.0
_cell_angle_gamma    90.0

_space_group_name_H-M_alt    "P 1"
_space_group_IT_number       1

loop_
  _space_group_symop_operation_xyz
  'x, y, z'

loop_
  _atom_site_type_symbol
  _atom_site_label
  _atom_site_symmetry_multiplicity
  _atom_site_fract_x
  _atom_site_fract_y
  _atom_site_fract_z
  _atom_site_occupancy
  O   O1        1.0  0.04413756733410734  0.23799766876892034  0.8875902641876972  1.0000
  O   O2        1.0  0.4225415283780154  0.2315397730503308  0.7188510028578196  1.0000
  O   O3        1.0  0.8021614886002655  0.15884157369180746  0.8024928712803507  1.0000
  O   O4        1.0  0.17221283906478768  0.11702785999350537  0.932085991418413  1.0000
  O   O5        1.0  0.6845143095985897  0.35444735582351033  0.2146086502781661  1.0000
  O   O6        1.0  0.22835207447351047  0.4904405874160539  0.5331821602963823  1.0000
  O   O7        1.0  0.3210530430585829  0.5633740510102627  0.23358532480599245  1.0000
  O   O8        1.0  0.16282463808415548  0.3296760168808072  0.5266813464848732  1.0000
  O   O9        1.0  0.5650249985473397  0.013729700596279315  0.5258856821722381  1.0000
  O   O10       1.0  0.7371082451511399  0.8879914787861682  0.15554695136762442  1.0000
  O   O11       1.0  0.4413248647724019  0.6970255062088068  0.2782534198195413  1.0000
  O   O12       1.0  0.24605876002761265  0.7933562217746284  0.010093021002487232  1.0000
  O   O13       1.0  0.9269441367652194  0.8331260656094327  0.7453727505619224  1.0000
  O   O14       1.0  0.8606856912028464  0.7524133111868859  0.13976351920070984  1.0000
  O   O15       1.0  0.34193333602340753  0.8478193343698375  0.8325800372632173  1.0000
  O   O16       1.0  0.04182618051332532  0.9677634356735765  0.34441108978004575  1.0000
  O   O17       1.0  0.5466871573186695  0.32752958404376503  0.8191955955746546  1.0000
  O   O18       1.0  0.6983436634944599  0.5518592392157438  0.5418008390961234  1.0000
  O   O19       1.0  0.5568073890593412  0.9162270881137161  0.6539409765091555  1.0000
  O   O20       1.0  0.6800286094066053  0.4064343509150753  0.06078686411229217  1.0000
  O   O21       1.0  0.7735368827589898  0.16949282651089742  0.6364078688972222  1.0000
  O   O22       1.0  0.0025731833118221026  0.7892591799338715  0.3454878941978118  1.0000
  O   O23       1.0  0.6961225064220289  0.6357324719304915  0.4011700801156728  1.0000
  O   O24       1.0  0.04719690663314338  0.9268953184957796  0.6602257987196846  1.0000
data_image27
_chemical_formula_structural       O24
_chemical_formula_sum              "O24"
_cell_length_a       6.65259782
_cell_length_b       6.76810209
_cell_length_c       7.45043691
_cell_angle_alpha    90.0
_cell_angle_beta     90.0
_cell_angle_gamma    90.0

_space_group_name_H-M_alt    "P 1"
_space_group_IT_number       1

loop_
  _space_group_symop_operation_xyz
  'x, y, z'

loop_
  _atom_site_type_symbol
  _atom_site_label
  _atom_site_symmetry_multiplicity
  _atom_site_fract_x
  _atom_site_fract_y
  _atom_site_fract_z
  _atom_site_occupancy
  O   O1        1.0  0.20364261084859048  0.31724111807621513  0.02837209694748098  1.0000
  O   O2        1.0  0.3032778897197183  0.18969829467381047  0.6697715093206658  1.0000
  O   O3        1.0  0.7319631591652467  0.1974532058697842  0.7508128987508897  1.0000
  O   O4        1.0  0.10802772542567407  0.14993355776772388  0.03512412117228021  1.0000
  O   O5        1.0  0.7998080608364913  0.2948746886374025  0.24274335989391838  1.0000
  O   O6        1.0  0.11444240574337779  0.4988833136087394  0.5532689760981923  1.0000
  O   O7        1.0  0.44898648305828204  0.5626042888413487  0.19833850566894634  1.0000
  O   O8        1.0  0.10895075127560414  0.40300956694296486  0.41078035093233217  1.0000
  O   O9        1.0  0.6039371303049387  0.0015834076854335244  0.4902653492484821  1.0000
  O   O10       1.0  0.7462404272202168  0.8371276353860208  0.010726936749833937  1.0000
  O   O11       1.0  0.502529568216553  0.7050906017940722  0.2971795161012829  1.0000
  O   O12       1.0  0.14740430738393323  0.8050431079941063  0.009413139233261193  1.0000
  O   O13       1.0  0.9564581583314123  0.8225477061855101  0.7495342788964008  1.0000
  O   O14       1.0  0.7620443157497738  0.696014320114687  0.10141322910550543  1.0000
  O   O15       1.0  0.34402513522277034  0.8604381042937796  0.9802693437640568  1.0000
  O   O16       1.0  0.05374800281190284  0.07296907446315548  0.3193383542819111  1.0000
  O   O17       1.0  0.3338619166063416  0.37098420317639963  0.6686628699362582  1.0000
  O   O18       1.0  0.6547692633839235  0.48659675773778566  0.45558347039653224  1.0000
  O   O19       1.0  0.5597531409853587  0.8607552581641891  0.5968572353649  1.0000
  O   O20       1.0  0.6536042009722883  0.3233196686691744  0.12811442931671846  1.0000
  O   O21       1.0  0.9145926429087797  0.2274099830959794  0.7325983199392463  1.0000
  O   O22       1.0  0.05577797764932457  0.8950490056708139  0.35315925430359313  1.0000
  O   O23       1.0  0.7420800169127663  0.6272888812893851  0.5004739266312224  1.0000
  O   O24       1.0  0.15007470926707686  0.794084249861645  0.7171985279462363  1.0000
data_image28
_chemical_formula_structural       O24
_chemical_formula_sum              "O24"
_cell_length_a       6.65259782
_cell_length_b       6.76810209
_cell_length_c       7.45043691
_cell_angle_alpha    90.0
_cell_angle_beta     90.0
_cell_angle_gamma    90.0

_space_group_name_H-M_alt    "P 1"
_space_group_IT_number       1

loop_
  _space_group_symop_operation_xyz
  'x, y, z'

loop_
  _atom_site_type_symbol
  _atom_site_label
  _atom_site_symmetry_multiplicity
  _atom_site_fract_x
  _atom_site_fract_y
  _atom_site_fract_z
  _atom_site_occupancy
  O   O1        1.0  0.20773900665543632  0.22015989247571185  0.04276378635151147  1.0000
  O   O2        1.0  0.1757858410460963  0.1400976413645148  0.7515494384571392  1.0000
  O   O3        1.0  0.6430085376828791  0.21076292463580718  0.6486589320173561  1.0000
  O   O4        1.0  0.02658481162548121  0.23526160929810727  0.013956065892234571  1.0000
  O   O5        1.0  0.6443823661769796  0.17109985641758205  0.23349948465073433  1.0000
  O   O6        1.0  0.09357321479491584  0.480532341269258  0.45752104032183694  1.0000
  O   O7        1.0  0.5238924278809147  0.530828649214014  0.25807725602577813  1.0000
  O   O8        1.0  0.23408914651359566  0.5846890077036909  0.39433097597729516  1.0000
  O   O9        1.0  0.560359508176832  0.936664573719804  0.5084270014118305  1.0000
  O   O10       1.0  0.6912243151637347  0.893279547908801  0.9765220710193159  1.0000
  O   O11       1.0  0.5260507399673467  0.7020318793689617  0.20444558296761664  1.0000
  O   O12       1.0  0.19026082123054164  0.9220399041581556  0.11296874564452214  1.0000
  O   O13       1.0  0.03533942088778426  0.8194030608647876  0.721338064019714  1.0000
  O   O14       1.0  0.775861452070159  0.805038003994176  0.09206381344650127  1.0000
  O   O15       1.0  0.28364056616765987  0.7950458827506866  0.013200206262254838  1.0000
  O   O16       1.0  0.23361991177486208  0.10049754330852267  0.3933944960744344  1.0000
  O   O17       1.0  0.27678740548899566  0.26332753739531145  0.6832399657841771  1.0000
  O   O18       1.0  0.6755636305777286  0.5120550556021926  0.49325708139816515  1.0000
  O   O19       1.0  0.6226345906428546  0.8618272110537633  0.6420642894641497  1.0000
  O   O20       1.0  0.6931587676151515  0.19055391046506237  0.0728961009547151  1.0000
  O   O21       1.0  0.7794356838111937  0.17114322980790372  0.7406055168542758  1.0000
  O   O22       1.0  0.0605523273564752  0.02322270484143507  0.3985077255271134  1.0000
  O   O23       1.0  0.8190495369662978  0.6243985984009084  0.4550600864146288  1.0000
  O   O24       1.0  0.22740596972644384  0.8060394339809288  0.691652273062888  1.0000
data_image29
_chemical_formula_structural       O24
_chemical_formula_sum              "O24"
_cell_length_a       6.65259782
_cell_length_b       6.76810209
_cell_length_c       7.45043691
_cell_angle_alpha    90.0
_cell_angle_beta     90.0
_cell_angle_gamma    90.0

_space_group_name_H-M_alt    "P 1"
_space_group_IT_number       1

loop_
  _space_group_symop_operation_xyz
  'x, y, z'

loop_
  _atom_site_type_symbol
  _atom_site_label
  _atom_site_symmetry_multiplicity
  _atom_site_fract_x
  _atom_site_fract_y
  _atom_site_fract_z
  _atom_site_occupancy
  O   O1        1.0  0.25640646291595726  0.33008320362478116  0.015200372187993453  1.0000
  O   O2        1.0  0.01951505537970064  0.2770660582185112  0.6635515900621435  1.0000
  O   O3        1.0  0.6326188782170645  0.20339025987077256  0.8104181463876348  1.0000
  O   O4        1.0  0.08104834590078402  0.3098879035670519  0.10522671597099693  1.0000
  O   O5        1.0  0.6589029209292847  0.1583757323037663  0.230755324273338  1.0000
  O   O6        1.0  0.2529758857569621  0.5401626565169018  0.3284086770090258  1.0000
  O   O7        1.0  0.5529525910298604  0.5011788405319988  0.1814329343313145  1.0000
  O   O8        1.0  0.28390437818444997  0.5693882146978306  0.4854241415216764  1.0000
  O   O9        1.0  0.45034122716208497  0.8478577862279615  0.621676037386044  1.0000
  O   O10       1.0  0.7495326814778966  0.8477245912398614  0.03478770769984463  1.0000
  O   O11       1.0  0.5226666395447882  0.6427511261542975  0.2713916306092988  1.0000
  O   O12       1.0  0.20170853293072127  0.8390262478258287  0.07248543869936701  1.0000
  O   O13       1.0  0.10101710927295547  0.9117176628015295  0.5763710915813524  1.0000
  O   O14       1.0  0.8403670052508316  0.8625934382301284  0.18521707634125328  1.0000
  O   O15       1.0  0.2821525669244322  0.7237112270111524  0.9811404338323956  1.0000
  O   O16       1.0  0.2164016412680294  0.12290088512055908  0.4218829474400452  1.0000
  O   O17       1.0  0.18595393619511658  0.21251708274625267  0.6605803606210353  1.0000
  O   O18       1.0  0.7911110832224039  0.49225609987543484  0.46066450216687777  1.0000
  O   O19       1.0  0.5842958137838907  0.7555870792643362  0.728260474907652  1.0000
  O   O20       1.0  0.5299545848774987  0.159613183781371  0.08784689794363532  1.0000
  O   O21       1.0  0.7423118443948205  0.10253832572462074  0.7087547421100836  1.0000
  O   O22       1.0  0.07665628771398891  0.13213246698294867  0.30893224588521556  1.0000
  O   O23       1.0  0.8245479808933461  0.6376406123452134  0.35450316506996105  1.0000
  O   O24       1.0  0.1626565467734685  0.8198993153369377  0.7050873459620349  1.0000
data_image30
_chemical_formula_structural       O24
_chemical_formula_sum              "O24"
_cell_length_a       6.65259782
_cell_length_b       6.76810209
_cell_length_c       7.45043691
_cell_angle_alpha    90.0
_cell_angle_beta     90.0
_cell_angle_gamma    90.0

_space_group_name_H-M_alt    "P 1"
_space_group_IT_number       1

loop_
  _space_group_symop_operation_xyz
  'x, y, z'

loop_
  _atom_site_type_symbol
  _atom_site_label
  _atom_site_symmetry_multiplicity
  _atom_site_fract_x
  _atom_site_fract_y
  _atom_site_fract_z
  _atom_site_occupancy
  O   O1        1.0  0.1448318553805803  0.17787488979066665  0.03137643450958312  1.0000
  O   O2        1.0  0.041076675587566176  0.4138240279415081  0.6789998981483523  1.0000
  O   O3        1.0  0.7023945360482166  0.2172900901279138  0.842640396864488  1.0000
  O   O4        1.0  0.003352907154403617  0.2841256253293216  0.044114616856056305  1.0000
  O   O5        1.0  0.7006612997242513  0.1720696636985136  0.23864216589311793  1.0000
  O   O6        1.0  0.2887734888939  0.6505838209579182  0.43130070903360196  1.0000
  O   O7        1.0  0.5591944272010595  0.5320102789700574  0.057176375223897166  1.0000
  O   O8        1.0  0.361758439465573  0.5397071702484522  0.5437266868640319  1.0000
  O   O9        1.0  0.32987602136145977  0.9143191661831795  0.6060979342638677  1.0000
  O   O10       1.0  0.8398824174425809  0.791291131261368  0.022227492170458163  1.0000
  O   O11       1.0  0.6067780672028471  0.591474557514968  0.20267488736009281  1.0000
  O   O12       1.0  0.2165438868477763  0.8797211940770754  0.07445676728550166  1.0000
  O   O13       1.0  0.0053325964055284366  0.7696497252812505  0.5508765525352202  1.0000
  O   O14       1.0  0.8475073621923088  0.8989679935866373  0.14715327577318638  1.0000
  O   O15       1.0  0.19704818977215782  0.6798720531389786  0.04020045722430606  1.0000
  O   O16       1.0  0.3377870741602642  0.28367070159179586  0.2812138825707313  1.0000
  O   O17       1.0  0.09401138626505809  0.2437604355097862  0.6597171963655464  1.0000
  O   O18       1.0  0.8262196672261085  0.4287737964999596  0.5127940629997244  1.0000
  O   O19       1.0  0.3933825931839886  0.7736992132636147  0.6807766709680252  1.0000
  O   O20       1.0  0.5485355104511936  0.10378950744306856  0.20804510894060324  1.0000
  O   O21       1.0  0.8174980911252743  0.11262521503935112  0.7680196246344453  1.0000
  O   O22       1.0  0.1582352669606626  0.21450809785270808  0.29177951605671726  1.0000
  O   O23       1.0  0.8919848757746789  0.5368669679807598  0.38685308798360674  1.0000
  O   O24       1.0  0.08733336417281776  0.789524676711145  0.6991361994750276  1.0000
data_image31
_chemical_formula_structural       O24
_chemical_formula_sum              "O24"
_cell_length_a       6.65259782
_cell_length_b       6.76810209
_cell_length_c       7.45043691
_cell_angle_alpha    90.0
_cell_angle_beta     90.0
_cell_angle_gamma    90.0

_space_group_name_H-M_alt    "P 1"
_space_group_IT_number       1

loop_
  _space_group_symop_operation_xyz
  'x, y, z'

loop_
  _atom_site_type_symbol
  _atom_site_label
  _atom_site_symmetry_multiplicity
  _atom_site_fract_x
  _atom_site_fract_y
  _atom_site_fract_z
  _atom_site_occupancy
  O   O1        1.0  0.06678987633941169  0.09958145769478868  0.004922566267871368  1.0000
  O   O2        1.0  0.17283276484810542  0.3610252284080173  0.6678444795465293  1.0000
  O   O3        1.0  0.7869208983816994  0.20359775429423885  0.8407287652925068  1.0000
  O   O4        1.0  0.005835455400379663  0.27127292702003714  0.006787538105639168  1.0000
  O   O5        1.0  0.6585164909391498  0.1986203560473794  0.30164342946706535  1.0000
  O   O6        1.0  0.25897659912822574  0.6101188934147072  0.5320484236696229  1.0000
  O   O7        1.0  0.45563787986490223  0.5892029576906251  0.014844325393704061  1.0000
  O   O8        1.0  0.4451256490647625  0.529943489533137  0.5575847948591709  1.0000
  O   O9        1.0  0.4200150201180543  0.8450249396984845  0.4682493797494701  1.0000
  O   O10       1.0  0.7953783945750031  0.7976966643270593  0.07666516436451198  1.0000
  O   O11       1.0  0.5147638144935828  0.5735211971745038  0.17940358970396741  1.0000
  O   O12       1.0  0.2902924267411504  0.8433065721993531  0.06222488531527152  1.0000
  O   O13       1.0  0.9681776540300755  0.8188242619464475  0.5832101548326891  1.0000
  O   O14       1.0  0.8765374550179836  0.8774938513956626  0.20968180943609194  1.0000
  O   O15       1.0  0.1460434919653887  0.7106490308601788  0.10956726056092832  1.0000
  O   O16       1.0  0.215964676128108  0.29741093997038437  0.33761833423773113  1.0000
  O   O17       1.0  0.026507236121441145  0.3192549851732425  0.5610760130439868  1.0000
  O   O18       1.0  0.8685744926601212  0.5860926286467931  0.45068987360538865  1.0000
  O   O19       1.0  0.4127175763910649  0.9132028736268657  0.6226857041960115  1.0000
  O   O20       1.0  0.6126851208921532  0.13982271202882082  0.14446748359837902  1.0000
  O   O21       1.0  0.7663173529852678  0.02266354178319817  0.9173064922433259  1.0000
  O   O22       1.0  0.16234829235586945  0.11875402022157333  0.29528194219333503  1.0000
  O   O23       1.0  0.9856347045504202  0.4918143528625265  0.36422408746309065  1.0000
  O   O24       1.0  0.08740667700787154  0.7811043639819634  0.6912435028538598  1.0000
data_image32
_chemical_formula_structural       O24
_chemical_formula_sum              "O24"
_cell_length_a       6.65259782
_cell_length_b       6.76810209
_cell_length_c       7.45043691
_cell_angle_alpha    90.0
_cell_angle_beta     90.0
_cell_angle_gamma    90.0

_space_group_name_H-M_alt    "P 1"
_space_group_IT_number       1

loop_
  _space_group_symop_operation_xyz
  'x, y, z'

loop_
  _atom_site_type_symbol
  _atom_site_label
  _atom_site_symmetry_multiplicity
  _atom_site_fract_x
  _atom_site_fract_y
  _atom_site_fract_z
  _atom_site_occupancy
  O   O1        1.0  0.09077464531900747  0.12616166517991634  0.9622666791094013  1.0000
  O   O2        1.0  0.0893549009305331  0.2108352687790521  0.6399062231382936  1.0000
  O   O3        1.0  0.7483447916078205  0.1689175680411689  0.7623492985385389  1.0000
  O   O4        1.0  0.000818342164588648  0.25262867918991083  0.883259644246688  1.0000
  O   O5        1.0  0.6666515926276517  0.20078614962080973  0.33185741233614596  1.0000
  O   O6        1.0  0.3202400821218157  0.5180936358700179  0.49930500982649084  1.0000
  O   O7        1.0  0.5280444384127849  0.5591245202438838  0.12677437695995952  1.0000
  O   O8        1.0  0.4456595153625097  0.44029371763683256  0.5933710505655766  1.0000
  O   O9        1.0  0.5517020502789108  0.9685100165404333  0.4733788669633898  1.0000
  O   O10       1.0  0.756126170983468  0.8391631859400038  0.009024815070197922  1.0000
  O   O11       1.0  0.5411866510260623  0.5541776231258172  0.2919302162222138  1.0000
  O   O12       1.0  0.44236592160178306  0.8479998988594026  0.07094194391286593  1.0000
  O   O13       1.0  0.0704951130875633  0.8436170862617821  0.6368891289211432  1.0000
  O   O14       1.0  0.7934774138557089  0.8654901039793128  0.16993259904132518  1.0000
  O   O15       1.0  0.29294158714878565  0.8361651974191997  0.179872864553473  1.0000
  O   O16       1.0  0.20758220240795233  0.06869001026405197  0.275030969122142  1.0000
  O   O17       1.0  0.9649842204652188  0.3098295297979675  0.5825536647620017  1.0000
  O   O18       1.0  0.7964779855732322  0.6539466556216547  0.36389045799639225  1.0000
  O   O19       1.0  0.42191503677647796  0.9581302932523573  0.5795229622981266  1.0000
  O   O20       1.0  0.5162167521346432  0.15518820810749842  0.2598299064859442  1.0000
  O   O21       1.0  0.6509090644806644  0.17021490497663516  0.8957580405663821  1.0000
  O   O22       1.0  0.04010799061315429  0.010917868584802592  0.3433944323921324  1.0000
  O   O23       1.0  0.9414242491890641  0.5870628658908181  0.26977669776983904  1.0000
  O   O24       1.0  0.12219928183077053  0.8540553468166764  0.7991827392014289  1.0000
data_image33
_chemical_formula_structural       O24
_chemical_formula_sum              "O24"
_cell_length_a       6.65259782
_cell_length_b       6.76810209
_cell_length_c       7.45043691
_cell_angle_alpha    90.0
_cell_angle_beta     90.0
_cell_angle_gamma    90.0

_space_group_name_H-M_alt    "P 1"
_space_group_IT_number       1

loop_
  _space_group_symop_operation_xyz
  'x, y, z'

loop_
  _atom_site_type_symbol
  _atom_site_label
  _atom_site_symmetry_multiplicity
  _atom_site_fract_x
  _atom_site_fract_y
  _atom_site_fract_z
  _atom_site_occupancy
  O   O1        1.0  0.030031457305122133  0.32168100500094715  0.8601420169076919  1.0000
  O   O2        1.0  0.15125896915849438  0.09529788001779571  0.6242275431408966  1.0000
  O   O3        1.0  0.72802989770187  0.125933129593344  0.8064903254475098  1.0000
  O   O4        1.0  0.9046129247279614  0.4412173591012742  0.9221983824111979  1.0000
  O   O5        1.0  0.6360702614135504  0.2201456021456176  0.3198744600587058  1.0000
  O   O6        1.0  0.29560922374023496  0.39180523598203865  0.6697184450726205  1.0000
  O   O7        1.0  0.5529164079015537  0.5817011649950226  0.309805434164443  1.0000
  O   O8        1.0  0.42993436159730514  0.39226474759529967  0.5304516914741253  1.0000
  O   O9        1.0  0.6553188639025873  0.8609288070773767  0.5848666835174906  1.0000
  O   O10       1.0  0.7088863327304095  0.7900650657575815  0.02299328269543377  1.0000
  O   O11       1.0  0.5283662524912524  0.7661242380879747  0.3201859250519748  1.0000
  O   O12       1.0  0.47632312898355306  0.9488684693948134  0.9637959910056015  1.0000
  O   O13       1.0  0.11980920365742531  0.786873425549638  0.6650284623732653  1.0000
  O   O14       1.0  0.8447675124492977  0.9040811650359772  0.03595679812794095  1.0000
  O   O15       1.0  0.3906029813953711  0.7939652459966713  0.9389294986131246  1.0000
  O   O16       1.0  0.01325768673198957  0.08919883532651585  0.21746824287985356  1.0000
  O   O17       1.0  0.96537502575114  0.14248165163063856  0.6328432952676274  1.0000
  O   O18       1.0  0.880492118110797  0.5629263650306495  0.4590095297012914  1.0000
  O   O19       1.0  0.49464723514081904  0.9310903645259496  0.5267047467238894  1.0000
  O   O20       1.0  0.45259927327125193  0.2370315341456822  0.3479349840778485  1.0000
  O   O21       1.0  0.6754366624485277  0.2827092343630722  0.8761056695255385  1.0000
  O   O22       1.0  0.12987049138182183  0.9578024418933101  0.2509576302810421  1.0000
  O   O23       1.0  0.8220090454708283  0.6004075715269876  0.290385490958299  1.0000
  O   O24       1.0  0.11377468253699749  0.7753994602257813  0.8239254705227226  1.0000
data_image34
_chemical_formula_structural       O24
_chemical_formula_sum              "O24"
_cell_length_a       6.65259782
_cell_length_b       6.76810209
_cell_length_c       7.45043691
_cell_angle_alpha    90.0
_cell_angle_beta     90.0
_cell_angle_gamma    90.0

_space_group_name_H-M_alt    "P 1"
_space_group_IT_number       1

loop_
  _space_group_symop_operation_xyz
  'x, y, z'

loop_
  _atom_site_type_symbol
  _atom_site_label
  _atom_site_symmetry_multiplicity
  _atom_site_fract_x
  _atom_site_fract_y
  _atom_site_fract_z
  _atom_site_occupancy
  O   O1        1.0  0.13167114976185745  0.28606040216806905  0.9299140785811417  1.0000
  O   O2        1.0  0.1495134650153786  0.027161794904119026  0.602744556618637  1.0000
  O   O3        1.0  0.7180746915759119  0.3102931011281352  0.9644220657184321  1.0000
  O   O4        1.0  0.08164615044249879  0.3568109333270913  0.0748784867275205  1.0000
  O   O5        1.0  0.5734837199768325  0.31677393510244767  0.37686978183790765  1.0000
  O   O6        1.0  0.40112206031841247  0.369333322308391  0.6412958852129472  1.0000
  O   O7        1.0  0.4525809746712553  0.7967894909452795  0.309040740776649  1.0000
  O   O8        1.0  0.5703752427473824  0.3994102739272076  0.6837268304639906  1.0000
  O   O9        1.0  0.5350172084401246  0.768160989028949  0.5460300528332992  1.0000
  O   O10       1.0  0.7545132273585102  0.7827347712815396  0.9837745497209058  1.0000
  O   O11       1.0  0.560244251875862  0.8986762740294288  0.2449071560988779  1.0000
  O   O12       1.0  0.21957571113297933  0.9295085057231565  0.8460315663572683  1.0000
  O   O13       1.0  0.1947613277203391  0.7224183324970916  0.5566919896676005  1.0000
  O   O14       1.0  0.8832503852196565  0.8109625168658252  0.8680776884351226  1.0000
  O   O15       1.0  0.37315637211553804  0.8599045859518357  0.8928019035375688  1.0000
  O   O16       1.0  0.011326515946116666  0.1401484416030987  0.2809728131407113  1.0000
  O   O17       1.0  0.9636563893495984  0.016644352698327255  0.639256234971988  1.0000
  O   O18       1.0  0.9121603628379531  0.4623417156792722  0.4091129791902159  1.0000
  O   O19       1.0  0.6117977518443002  0.9293158300525594  0.5902055477286763  1.0000
  O   O20       1.0  0.39997472943487133  0.2808373153527174  0.33589281565201823  1.0000
  O   O21       1.0  0.5788501081262254  0.2653507090806219  0.0797569508333471  1.0000
  O   O22       1.0  0.9050332684391181  0.07437835590045028  0.157873856211129  1.0000
  O   O23       1.0  0.8516411358349631  0.5969373535465552  0.3161557579283891  1.0000
  O   O24       1.0  0.16657379981451378  0.5990466968978106  0.669565711755769  1.0000
data_image35
_chemical_formula_structural       O24
_chemical_formula_sum              "O24"
_cell_length_a       6.65259782
_cell_length_b       6.76810209
_cell_length_c       7.45043691
_cell_angle_alpha    90.0
_cell_angle_beta     90.0
_cell_angle_gamma    90.0

_space_group_name_H-M_alt    "P 1"
_space_group_IT_number       1

loop_
  _space_group_symop_operation_xyz
  'x, y, z'

loop_
  _atom_site_type_symbol
  _atom_site_label
  _atom_site_symmetry_multiplicity
  _atom_site_fract_x
  _atom_site_fract_y
  _atom_site_fract_z
  _atom_site_occupancy
  O   O1        1.0  0.14125651088202384  0.3097172321891835  0.021198863375842304  1.0000
  O   O2        1.0  0.18310253086987113  0.9753873305191715  0.6265620851584965  1.0000
  O   O3        1.0  0.5579583693660651  0.38699251861939243  0.06773541713563747  1.0000
  O   O4        1.0  0.2657358230052458  0.42827559093990114  0.057308306504633755  1.0000
  O   O5        1.0  0.5682451943285015  0.35420162040195446  0.46158104123669186  1.0000
  O   O6        1.0  0.4597215922641008  0.3620583606758086  0.8507562212949616  1.0000
  O   O7        1.0  0.3639390254884364  0.005407624243034782  0.29354101245286846  1.0000
  O   O8        1.0  0.5044928601233392  0.5078498154102937  0.7951570762189502  1.0000
  O   O9        1.0  0.5031525054171416  0.8350070729960591  0.5703992673386582  1.0000
  O   O10       1.0  0.9727816335226698  0.6916515917326028  0.8041456012861792  1.0000
  O   O11       1.0  0.41010119255698657  0.8356504106873979  0.2895230895853249  1.0000
  O   O12       1.0  0.17545249752874004  0.920071060887583  0.8812676062243859  1.0000
  O   O13       1.0  0.24068782909590034  0.7411307745154999  0.427085757541601  1.0000
  O   O14       1.0  0.9230799892418574  0.6730227195786812  0.6594306445024689  1.0000
  O   O15       1.0  0.29944824599184067  0.7747284727518734  0.8809428470019095  1.0000
  O   O16       1.0  0.9530300727309055  0.049429386033101874  0.28966805990229527  1.0000
  O   O17       1.0  0.998199654879939  0.9216045824893899  0.6102332384245462  1.0000
  O   O18       1.0  0.9087444292232434  0.45866079605930454  0.38514616844542515  1.0000
  O   O19       1.0  0.4941171070374115  0.018170392558166215  0.5351514314140137  1.0000
  O   O20       1.0  0.41128892219872976  0.37120410883022675  0.3666742339957081  1.0000
  O   O21       1.0  0.6241556189871483  0.2177454264592768  0.08719481514695948  1.0000
  O   O22       1.0  0.8784871525919732  0.9141419285635913  0.19422944683474747  1.0000
  O   O23       1.0  0.923052803859427  0.6062524675274468  0.28570032589668837  1.0000
  O   O24       1.0  0.23976843880877416  0.6416387153310096  0.5593674430810703  1.0000
data_image36
_chemical_formula_structural       O24
_chemical_formula_sum              "O24"
_cell_length_a       6.65259782
_cell_length_b       6.76810209
_cell_length_c       7.45043691
_cell_angle_alpha    90.0
_cell_angle_beta     90.0
_cell_angle_gamma    90.0

_space_group_name_H-M_alt    "P 1"
_space_group_IT_number       1

loop_
  _space_group_symop_operation_xyz
  'x, y, z'

loop_
  _atom_site_type_symbol
  _atom_site_label
  _atom_site_symmetry_multiplicity
  _atom_site_fract_x
  _atom_site_fract_y
  _atom_site_fract_z
  _atom_site_occupancy
  O   O1        1.0  0.13081181261121655  0.4104220694300307  0.04291183532525478  1.0000
  O   O2        1.0  0.1558200195366585  0.005136605040093914  0.6146077834463232  1.0000
  O   O3        1.0  0.5423013356510551  0.46950087140674013  0.16796671767447968  1.0000
  O   O4        1.0  0.22821726825540223  0.5687153510163908  0.030038525918164187  1.0000
  O   O5        1.0  0.5716186366278316  0.3984269230621408  0.4104856446755287  1.0000
  O   O6        1.0  0.5166265441860286  0.27706517201141134  0.6876103193235188  1.0000
  O   O7        1.0  0.31323992578895005  0.030630556743911602  0.16712271422298983  1.0000
  O   O8        1.0  0.5334338482568094  0.4375550341233556  0.7617430112874272  1.0000
  O   O9        1.0  0.6493562485168294  0.8591855457180528  0.5639682585946586  1.0000
  O   O10       1.0  0.9743905180601279  0.6565894738981596  0.8580953594444496  1.0000
  O   O11       1.0  0.4436684833723972  0.9134283603486849  0.21636336670920606  1.0000
  O   O12       1.0  0.1883786313069985  0.8782895409065758  0.8934345623419909  1.0000
  O   O13       1.0  0.17716869103283345  0.6434739574847255  0.5218628731776656  1.0000
  O   O14       1.0  0.893050771499188  0.6102577211583214  0.7146023523507109  1.0000
  O   O15       1.0  0.34006276470798086  0.872002517828889  0.8063237195822386  1.0000
  O   O16       1.0  0.799459309688404  0.06203589150828015  0.2894960900429858  1.0000
  O   O17       1.0  0.044129245636900315  0.8669693561520622  0.6482232842944557  1.0000
  O   O18       1.0  0.9808580509161329  0.41287512041907437  0.32338367410405233  1.0000
  O   O19       1.0  0.4445856425774671  0.8838258871662352  0.5350232777436272  1.0000
  O   O20       1.0  0.4021010582050273  0.2835889603290167  0.4200632215876512  1.0000
  O   O21       1.0  0.5688072933447488  0.3062347927697009  0.08846182499113198  1.0000
  O   O22       1.0  0.964471681138164  0.9994668944664781  0.34849486716437644  1.0000
  O   O23       1.0  0.8395698933290368  0.4931513469354154  0.23956527030334196  1.0000
  O   O24       1.0  0.2978723257540839  0.6611720500761852  0.6501514456937548  1.0000
data_image37
_chemical_formula_structural       O24
_chemical_formula_sum              "O24"
_cell_length_a       6.65259782
_cell_length_b       6.76810209
_cell_length_c       7.45043691
_cell_angle_alpha    90.0
_cell_angle_beta     90.0
_cell_angle_gamma    90.0

_space_group_name_H-M_alt    "P 1"
_space_group_IT_number       1

loop_
  _space_group_symop_operation_xyz
  'x, y, z'

loop_
  _atom_site_type_symbol
  _atom_site_label
  _atom_site_symmetry_multiplicity
  _atom_site_fract_x
  _atom_site_fract_y
  _atom_site_fract_z
  _atom_site_occupancy
  O   O1        1.0  0.15125451800856538  0.3287945297503401  0.9678004540317973  1.0000
  O   O2        1.0  0.114299163733785  0.025413288342395073  0.6454768728998852  1.0000
  O   O3        1.0  0.6257246581445592  0.458838670890499  0.14538822601710466  1.0000
  O   O4        1.0  0.1772520217547635  0.48247318599082506  0.03052614097738428  1.0000
  O   O5        1.0  0.591405048199493  0.2964645545353202  0.34372093062694375  1.0000
  O   O6        1.0  0.8831834156565919  0.1751790316132727  0.7790157755511931  1.0000
  O   O7        1.0  0.17169899259751858  0.20247177777364428  0.3365843097607661  1.0000
  O   O8        1.0  0.8191230424094149  0.2095260469528764  0.6438872716700754  1.0000
  O   O9        1.0  0.5852974254778941  0.844301479743667  0.5807718802581614  1.0000
  O   O10       1.0  0.9023819584663936  0.8173821498099895  0.9140785215913463  1.0000
  O   O11       1.0  0.3308134341509231  0.1048012256459622  0.28418737495379004  1.0000
  O   O12       1.0  0.23267680996507883  0.8170960150414377  0.8082303865843133  1.0000
  O   O13       1.0  0.17940864200676043  0.6233217185142088  0.5946791616702232  1.0000
  O   O14       1.0  0.8819038961822087  0.7484366703343435  0.7655860151926398  1.0000
  O   O15       1.0  0.3965754401865902  0.7462108328445263  0.8303529421304092  1.0000
  O   O16       1.0  0.7790343191706747  0.012617541611010141  0.11265808020557232  1.0000
  O   O17       1.0  0.04113396807474898  0.8727527643539097  0.6073211512380179  1.0000
  O   O18       1.0  0.8737820637072745  0.4661151355980617  0.2831768767148573  1.0000
  O   O19       1.0  0.4183695550924719  0.8026626609338058  0.5676271593835847  1.0000
  O   O20       1.0  0.4289633868306161  0.3867634102330253  0.4103529618461883  1.0000
  O   O21       1.0  0.6239316109495799  0.3325304751185921  0.004199506924300156  1.0000
  O   O22       1.0  0.7691733991571948  0.025139404694109135  0.2757271524066066  1.0000
  O   O23       1.0  0.8992693371150539  0.6491708219932071  0.34427083255797  1.0000
  O   O24       1.0  0.12334389296205966  0.5715366076809167  0.7243800148068051  1.0000
data_image38
_chemical_formula_structural       O24
_chemical_formula_sum              "O24"
_cell_length_a       6.65259782
_cell_length_b       6.76810209
_cell_length_c       7.45043691
_cell_angle_alpha    90.0
_cell_angle_beta     90.0
_cell_angle_gamma    90.0

_space_group_name_H-M_alt    "P 1"
_space_group_IT_number       1

loop_
  _space_group_symop_operation_xyz
  'x, y, z'

loop_
  _atom_site_type_symbol
  _atom_site_label
  _atom_site_symmetry_multiplicity
  _atom_site_fract_x
  _atom_site_fract_y
  _atom_site_fract_z
  _atom_site_occupancy
  O   O1        1.0  0.3209187539045961  0.36235240494258975  0.0038224005597989738  1.0000
  O   O2        1.0  0.25094632902094116  0.9687271558392235  0.6763302491416048  1.0000
  O   O3        1.0  0.6258003015694467  0.5540568999454989  0.12563496761558612  1.0000
  O   O4        1.0  0.17521030323339537  0.40784030113972236  0.11798757109272157  1.0000
  O   O5        1.0  0.5724620064591581  0.15996499378115236  0.4142952577027632  1.0000
  O   O6        1.0  0.6308587139453256  0.1539125296548157  0.7083236693910462  1.0000
  O   O7        1.0  0.043521958660382255  0.26648347335905476  0.3685697338705757  1.0000
  O   O8        1.0  0.8134485078010958  0.17247570397430426  0.7057457736978743  1.0000
  O   O9        1.0  0.4710934364107715  0.798637689621705  0.5253576194527285  1.0000
  O   O10       1.0  0.9988413807879662  0.8616320963661581  0.8636785791673488  1.0000
  O   O11       1.0  0.12895266243399936  0.10654808174089797  0.3230588309627738  1.0000
  O   O12       1.0  0.2590564063719757  0.742501518737274  0.8526226784413384  1.0000
  O   O13       1.0  0.15305839937570195  0.6458803177936965  0.6185412521328207  1.0000
  O   O14       1.0  0.8418968899973605  0.7779450634632814  0.8008479937784255  1.0000
  O   O15       1.0  0.3913355409608396  0.6954944407685701  0.7479060877949424  1.0000
  O   O16       1.0  0.818063334725007  0.06308642672661269  0.19299248860013804  1.0000
  O   O17       1.0  0.08865812125957255  0.9179478602263715  0.6388822063459647  1.0000
  O   O18       1.0  0.8204477454707753  0.6684825483833201  0.25496137274764  1.0000
  O   O19       1.0  0.4503618255638033  0.7338283602555903  0.3703382203319594  1.0000
  O   O20       1.0  0.6070790470338113  0.32717812603387103  0.36219685815689906  1.0000
  O   O21       1.0  0.7265645443585584  0.4875112429087257  0.9990498955136374  1.0000
  O   O22       1.0  0.955530472152474  0.9650244401765101  0.20699488540171754  1.0000
  O   O23       1.0  0.8165434463008056  0.5950833500350616  0.40593790980436295  1.0000
  O   O24       1.0  0.03934987220243483  0.5674049741260372  0.7159234982951639  1.0000
data_image39
_chemical_formula_structural       O24
_chemical_formula_sum              "O24"
_cell_length_a       6.65259782
_cell_length_b       6.76810209
_cell_length_c       7.45043691
_cell_angle_alpha    90.0
_cell_angle_beta     90.0
_cell_angle_gamma    90.0

_space_group_name_H-M_alt    "P 1"
_space_group_IT_number       1

loop_
  _space_group_symop_operation_xyz
  'x, y, z'

loop_
  _atom_site_type_symbol
  _atom_site_label
  _atom_site_symmetry_multiplicity
  _atom_site_fract_x
  _atom_site_fract_y
  _atom_site_fract_z
  _atom_site_occupancy
  O   O1        1.0  0.3678267417894745  0.3824658513914733  0.049868776318193114  1.0000
  O   O2        1.0  0.31830585690226254  0.9238506277192717  0.6338350879788331  1.0000
  O   O3        1.0  0.7462392235622561  0.43609955299809233  0.9974544476660963  1.0000
  O   O4        1.0  0.18867496742982093  0.46661514384505337  0.09670156665042431  1.0000
  O   O5        1.0  0.5147585769841118  0.219635523176804  0.296878037917383  1.0000
  O   O6        1.0  0.4199866300391475  0.13264611529732587  0.8167830092255803  1.0000
  O   O7        1.0  0.1544124513441889  0.3313213570587432  0.5337658790347959  1.0000
  O   O8        1.0  0.5966438383509716  0.15445132329588318  0.8027194643908319  1.0000
  O   O9        1.0  0.4640531601729361  0.668947603022925  0.3763031730849038  1.0000
  O   O10       1.0  0.9055392314539965  0.7911792922208312  0.7636872992638386  1.0000
  O   O11       1.0  0.11497001046908019  0.2485697610886003  0.3951973193669944  1.0000
  O   O12       1.0  0.2239220455611567  0.8258484819766807  0.9159917402172272  1.0000
  O   O13       1.0  0.2596384170934874  0.6314940728984504  0.7330314759693469  1.0000
  O   O14       1.0  0.8184931282369429  0.7861537856622498  0.6232964783678542  1.0000
  O   O15       1.0  0.40199349527715283  0.8302267409214161  0.9360482297975463  1.0000
  O   O16       1.0  0.8798340863435273  0.10287920794185879  0.20710680186001434  1.0000
  O   O17       1.0  0.14574159894672106  0.876461376885043  0.6516670441970086  1.0000
  O   O18       1.0  0.8831826898028733  0.6336704958413368  0.2046845419257158  1.0000
  O   O19       1.0  0.29230866833894786  0.7341507639425457  0.3194580702854676  1.0000
  O   O20       1.0  0.46717185858106314  0.2838946439248797  0.45028287980329895  1.0000
  O   O21       1.0  0.820831853241965  0.28227224059491635  0.9652453847738781  1.0000
  O   O22       1.0  0.9976285617166067  0.04952486238221043  0.08487603188988263  1.0000
  O   O23       1.0  0.9095938281403798  0.6430517915091836  0.3642163905156037  1.0000
  O   O24       1.0  0.10824908022111165  0.564589384404389  0.7809008694990576  1.0000
data_image40
_chemical_formula_structural       O24
_chemical_formula_sum              "O24"
_cell_length_a       6.65259782
_cell_length_b       6.76810209
_cell_length_c       7.45043691
_cell_angle_alpha    90.0
_cell_angle_beta     90.0
_cell_angle_gamma    90.0

_space_group_name_H-M_alt    "P 1"
_space_group_IT_number       1

loop_
  _space_group_symop_operation_xyz
  'x, y, z'

loop_
  _atom_site_type_symbol
  _atom_site_label
  _atom_site_symmetry_multiplicity
  _atom_site_fract_x
  _atom_site_fract_y
  _atom_site_fract_z
  _atom_site_occupancy
  O   O1        1.0  0.4333212771776489  0.4649512644780535  0.9812084296959453  1.0000
  O   O2        1.0  0.3925909307672456  0.7070572481627829  0.6651745868596614  1.0000
  O   O3        1.0  0.6729234675818552  0.29186915660507196  0.9130789728370285  1.0000
  O   O4        1.0  0.4164755099599571  0.3965518215181469  0.14203004506577027  1.0000
  O   O5        1.0  0.5837390534524396  0.26065974588017005  0.42778904216257585  1.0000
  O   O6        1.0  0.349988084472763  0.2615508225707388  0.7996888116583167  1.0000
  O   O7        1.0  0.21467723460839688  0.24356740549166353  0.5125268649480228  1.0000
  O   O8        1.0  0.43781183954057473  0.10135058284723797  0.7799582458905581  1.0000
  O   O9        1.0  0.35915175297918367  0.772460904649969  0.29858151197928806  1.0000
  O   O10       1.0  0.8974455183847047  0.7950876752539171  0.6673474167032138  1.0000
  O   O11       1.0  0.20550599418002483  0.2203375600903577  0.3467132534541594  1.0000
  O   O12       1.0  0.10443986475480284  0.8175441948403986  0.8678184381469238  1.0000
  O   O13       1.0  0.10729080031539778  0.5807136371960581  0.7446187414591254  1.0000
  O   O14       1.0  0.8146662816282358  0.8024503846403852  0.8128737676296541  1.0000
  O   O15       1.0  0.25134189347602093  0.9093310135789223  0.874537422309955  1.0000
  O   O16       1.0  0.8068192622318513  0.07942256641678402  0.2803789873868867  1.0000
  O   O17       1.0  0.23169460770042233  0.7883719637640464  0.6374797247487459  1.0000
  O   O18       1.0  0.08503498498954642  0.5611508482559284  0.24922822476687245  1.0000
  O   O19       1.0  0.2179367736063063  0.873632231994505  0.3026365707624957  1.0000
  O   O20       1.0  0.6535576624542068  0.43030737206834735  0.4395038070379722  1.0000
  O   O21       1.0  0.7951993485277636  0.40150735270240706  0.9736792586325005  1.0000
  O   O22       1.0  0.9330313443732069  0.13007318994980666  0.1432548014851323  1.0000
  O   O23       1.0  0.09109167475105817  0.5779920776966305  0.4151663164636714  1.0000
  O   O24       1.0  0.944264838086595  0.5320589793478755  0.7247267579152481  1.0000
data_image41
_chemical_formula_structural       O24
_chemical_formula_sum              "O24"
_cell_length_a       6.65259782
_cell_length_b       6.76810209
_cell_length_c       7.45043691
_cell_angle_alpha    90.0
_cell_angle_beta     90.0
_cell_angle_gamma    90.0

_space_group_name_H-M_alt    "P 1"
_space_group_IT_number       1

loop_
  _space_group_symop_operation_xyz
  'x, y, z'

loop_
  _atom_site_type_symbol
  _atom_site_label
  _atom_site_symmetry_multiplicity
  _atom_site_fract_x
  _atom_site_fract_y
  _atom_site_fract_z
  _atom_site_occupancy
  O   O1        1.0  0.3587518753543284  0.3829491374565912  0.02568548034789104  1.0000
  O   O2        1.0  0.3721931520812536  0.6687752740045099  0.6747910626460223  1.0000
  O   O3        1.0  0.8389713519153228  0.277646657491472  0.9221282777877866  1.0000
  O   O4        1.0  0.4675700810594505  0.29671551643096217  0.13235442248413556  1.0000
  O   O5        1.0  0.7177125309089984  0.5272000938925963  0.4617297124960218  1.0000
  O   O6        1.0  0.29396270469744845  0.08367406994395964  0.8409796257913404  1.0000
  O   O7        1.0  0.27046317161413713  0.28484820082438567  0.49204724195092736  1.0000
  O   O8        1.0  0.47259517945090984  0.08684681217589285  0.8480818675316569  1.0000
  O   O9        1.0  0.2472470078131977  0.8278373513526799  0.3038518094017224  1.0000
  O   O10       1.0  0.9458789223194655  0.8759272585742228  0.6845586104261003  1.0000
  O   O11       1.0  0.41959215822629886  0.2537953093492719  0.39605822764605403  1.0000
  O   O12       1.0  0.010140186989373173  0.7624817938302226  0.9818801075009999  1.0000
  O   O13       1.0  0.027051467896363354  0.5552493615213288  0.7358436649111832  1.0000
  O   O14       1.0  0.8090584431060835  0.8067203085298046  0.79085726891271  1.0000
  O   O15       1.0  0.1647801446073344  0.7179775771033584  0.8978642450782949  1.0000
  O   O16       1.0  0.7496581392703121  0.13545546522109064  0.26045654641085125  1.0000
  O   O17       1.0  0.21641282146491125  0.7564563845214155  0.6477089036560872  1.0000
  O   O18       1.0  0.22647711044248742  0.542726142635954  0.24835061802733005  1.0000
  O   O19       1.0  0.10532752628184325  0.8165476495753766  0.41054780002196145  1.0000
  O   O20       1.0  0.6790388817721899  0.5839174831017241  0.31815099994002205  1.0000
  O   O21       1.0  0.7059754859416747  0.3850070520090441  0.8768773790417878  1.0000
  O   O22       1.0  0.8573192925662347  0.22897201033362702  0.15720268995893866  1.0000
  O   O23       1.0  0.05185964828838885  0.5440541467886693  0.31279822203549923  1.0000
  O   O24       1.0  0.9919627159321984  0.5982189433320577  0.5791952159943696  1.0000
data_image42
_chemical_formula_structural       O24
_chemical_formula_sum              "O24"
_cell_length_a       6.65259782
_cell_length_b       6.76810209
_cell_length_c       7.45043691
_cell_angle_alpha    90.0
_cell_angle_beta     90.0
_cell_angle_gamma    90.0

_space_group_name_H-M_alt    "P 1"
_space_group_IT_number       1

loop_
  _space_group_symop_operation_xyz
  'x, y, z'

loop_
  _atom_site_type_symbol
  _atom_site_label
  _atom_site_symmetry_multiplicity
  _atom_site_fract_x
  _atom_site_fract_y
  _atom_site_fract_z
  _atom_site_occupancy
  O   O1        1.0  0.44386275924171503  0.3809569767795549  0.8938803047192332  1.0000
  O   O2        1.0  0.30236343306467656  0.7198602480101415  0.6830375237679691  1.0000
  O   O3        1.0  0.7882304879756568  0.3499030081069294  0.8681227944416257  1.0000
  O   O4        1.0  0.5475107233701633  0.3027247642593223  0.026343275898431728  1.0000
  O   O5        1.0  0.6647747113596848  0.6253556945197029  0.534322903199576  1.0000
  O   O6        1.0  0.1613661878900573  0.997025610692763  0.01784241686496113  1.0000
  O   O7        1.0  0.3097868523314921  0.21492162655117905  0.6400136219244  1.0000
  O   O8        1.0  0.3141483213596246  0.9394035197815768  0.9616271111931878  1.0000
  O   O9        1.0  0.1386465556031082  0.9074784272545251  0.35852435283858974  1.0000
  O   O10       1.0  0.0794939046949335  0.9080111639827387  0.679121018650805  1.0000
  O   O11       1.0  0.45890262959714473  0.28147595786189883  0.5902779539785912  1.0000
  O   O12       1.0  0.019234984060772786  0.6924321638762958  0.9495560373334461  1.0000
  O   O13       1.0  0.0385766305058957  0.6220355545575686  0.6896799607315409  1.0000
  O   O14       1.0  0.9529359470244304  0.9585807273082572  0.7776908919151442  1.0000
  O   O15       1.0  0.1906848715724512  0.6352918250838719  0.9653932881664135  1.0000
  O   O16       1.0  0.7166850674160172  0.06701498718735688  0.18533912225350013  1.0000
  O   O17       1.0  0.2852053877456739  0.7446238933680909  0.521249983322396  1.0000
  O   O18       1.0  0.21266399909573752  0.5398255310260476  0.25792768580223807  1.0000
  O   O19       1.0  0.0060615601374608705  0.8257067899938653  0.26073005424030826  1.0000
  O   O20       1.0  0.6472349827656877  0.7460418673928726  0.385098876616087  1.0000
  O   O21       1.0  0.742402054796391  0.29366458332056744  0.7137624138969868  1.0000
  O   O22       1.0  0.8844113713843901  0.15297889157567046  0.19519685011719567  1.0000
  O   O23       1.0  0.0743551091874306  0.437181401214203  0.30745156420977104  1.0000
  O   O24       1.0  0.02046146781964279  0.6575047862952285  0.5378099939172591  1.0000
data_image43
_chemical_formula_structural       O24
_chemical_formula_sum              "O24"
_cell_length_a       6.65259782
_cell_length_b       6.76810209
_cell_length_c       7.45043691
_cell_angle_alpha    90.0
_cell_angle_beta     90.0
_cell_angle_gamma    90.0

_space_group_name_H-M_alt    "P 1"
_space_group_IT_number       1

loop_
  _space_group_symop_operation_xyz
  'x, y, z'

loop_
  _atom_site_type_symbol
  _atom_site_label
  _atom_site_symmetry_multiplicity
  _atom_site_fract_x
  _atom_site_fract_y
  _atom_site_fract_z
  _atom_site_occupancy
  O   O1        1.0  0.5967651504015521  0.44977155925153056  0.4331185985083721  1.0000
  O   O2        1.0  0.4532857852605048  0.8221195133578476  0.794755361504258  1.0000
  O   O3        1.0  0.49606362381382496  0.8388360897065468  0.3690941926834057  1.0000
  O   O4        1.0  0.5803484569394612  0.9134215803709367  0.6960431388033044  1.0000
  O   O5        1.0  0.9430948179506231  0.256058194711386  0.05194372944220049  1.0000
  O   O6        1.0  0.9625551389115117  0.3055757156674872  0.5240616878454603  1.0000
  O   O7        1.0  0.25963337205735115  0.563202983801375  0.28231552858142095  1.0000
  O   O8        1.0  0.04140304014163121  0.8629974192263035  0.5367060296885029  1.0000
  O   O9        1.0  0.14195064554678538  0.7774216859843364  0.24550451753179914  1.0000
  O   O10       1.0  0.242313977928859  0.6195111745732902  0.13060191292561285  1.0000
  O   O11       1.0  0.14064715815078443  0.0068302033469080925  0.27070031777930126  1.0000
  O   O12       1.0  0.8204884825727277  0.8855641585801095  0.9578360617688304  1.0000
  O   O13       1.0  0.7374943929889923  0.47070419282135845  0.40928727699792944  1.0000
  O   O14       1.0  0.6448000239925022  0.8836989131377777  0.615898736151621  1.0000
  O   O15       1.0  0.15159301138174897  0.9293740435226141  0.6928637732823972  1.0000
  O   O16       1.0  0.9400801937571543  0.12303088650827476  0.9398091903223644  1.0000
  O   O17       1.0  0.7940790861390497  0.49234556549602715  0.09740510542485481  1.0000
  O   O18       1.0  0.9572258176165178  0.8414096491169403  0.12024515257689927  1.0000
  O   O19       1.0  0.2698541423703773  0.749488927782977  0.4692442512737216  1.0000
  O   O20       1.0  0.3307723140227381  0.39534892159355195  0.8568056938229347  1.0000
  O   O21       1.0  0.631720484121729  0.2425843210212406  0.8440925723734551  1.0000
  O   O22       1.0  0.9062567149860978  0.22861622309598406  0.9316799377101539  1.0000
  O   O23       1.0  0.9299991589108174  0.6424804303157998  0.19513610362241707  1.0000
  O   O24       1.0  0.027575010043335624  0.6996076470255588  0.5348511293809679  1.0000
data_image44
_chemical_formula_structural       O24
_chemical_formula_sum              "O24"
_cell_length_a       6.65259782
_cell_length_b       6.76810209
_cell_length_c       7.45043691
_cell_angle_alpha    90.0
_cell_angle_beta     90.0
_cell_angle_gamma    90.0

_space_group_name_H-M_alt    "P 1"
_space_group_IT_number       1

loop_
  _space_group_symop_operation_xyz
  'x, y, z'

loop_
  _atom_site_type_symbol
  _atom_site_label
  _atom_site_symmetry_multiplicity
  _atom_site_fract_x
  _atom_site_fract_y
  _atom_site_fract_z
  _atom_site_occupancy
  O   O1        1.0  0.031224528458551504  0.8281370902659546  0.41706776422506664  1.0000
  O   O2        1.0  0.811378925369354  0.24460218929380062  0.7472667874826584  1.0000
  O   O3        1.0  0.08313526620622724  0.2090977390835178  0.42434911119926255  1.0000
  O   O4        1.0  0.18803090272865575  0.9218995454243668  0.07276409653286464  1.0000
  O   O5        1.0  0.3978050160294515  0.4989352882512321  0.4381826213993918  1.0000
  O   O6        1.0  0.8285174913107767  0.6750043755018851  0.43613415773870656  1.0000
  O   O7        1.0  0.15923631440489316  0.11198182178122806  0.5670720633970632  1.0000
  O   O8        1.0  0.014235118265787605  0.6746558255545096  0.0657680498843547  1.0000
  O   O9        1.0  0.12597487007133168  0.7429642653833071  0.4968984188590184  1.0000
  O   O10       1.0  0.9677954723126732  0.14948611787849586  0.6526452846624125  1.0000
  O   O11       1.0  0.2348065432470321  0.30151651673804736  0.7292094116928638  1.0000
  O   O12       1.0  0.6516978925683361  0.41176982416800456  0.14114653172146063  1.0000
  O   O13       1.0  0.8773957603116287  0.280156155648001  0.050989227485843  1.0000
  O   O14       1.0  0.8849177318625152  0.1652831793180667  0.8496662302441109  1.0000
  O   O15       1.0  0.04906377801853523  0.9842042749992288  0.3877212961333498  1.0000
  O   O16       1.0  0.7799313821342366  0.8839024423277806  0.975406225662482  1.0000
  O   O17       1.0  0.5467835854396981  0.5558024846131957  0.18158326642333122  1.0000
  O   O18       1.0  0.1974714110892819  0.10568487677119265  0.7616385686669673  1.0000
  O   O19       1.0  0.6709830600311761  0.3500134730911668  0.27427899823669577  1.0000
  O   O20       1.0  0.07361208609923331  0.5491651937095412  0.20628960885414926  1.0000
  O   O21       1.0  0.4653107707708841  0.6788604286630289  0.8716665733927584  1.0000
  O   O22       1.0  0.5393817438083488  0.4877062242561294  0.9618809544067517  1.0000
  O   O23       1.0  0.7730988810117196  0.7865357579230476  0.6157132033044945  1.0000
  O   O24       1.0  0.6482114688537877  0.4026349099883646  0.6746615490355907  1.0000
data_image45
_chemical_formula_structural       O24
_chemical_formula_sum              "O24"
_cell_length_a       6.65259782
_cell_length_b       6.76810209
_cell_length_c       7.45043691
_cell_angle_alpha    90.0
_cell_angle_beta     90.0
_cell_angle_gamma    90.0

_space_group_name_H-M_alt    "P 1"
_space_group_IT_number       1

loop_
  _space_group_symop_operation_xyz
  'x, y, z'

loop_
  _atom_site_type_symbol
  _atom_site_label
  _atom_site_symmetry_multiplicity
  _atom_site_fract_x
  _atom_site_fract_y
  _atom_site_fract_z
  _atom_site_occupancy
  O   O1        1.0  0.7831971127889119  0.526921746761218  0.4594021021039225  1.0000
  O   O2        1.0  0.7195740639363066  0.8554672568025126  0.3052016886704223  1.0000
  O   O3        1.0  0.5595407350483583  0.553580559004331  0.868509003368672  1.0000
  O   O4        1.0  0.3212030360527933  0.42070064422659925  0.34812905944693284  1.0000
  O   O5        1.0  0.8557028854411328  0.38507483140347176  0.12751111763282097  1.0000
  O   O6        1.0  0.10312022042489843  0.15762399969526086  0.6061218922386615  1.0000
  O   O7        1.0  0.018188352283232234  0.9845672064438986  0.6762848453145125  1.0000
  O   O8        1.0  0.5398050003641401  0.03508823332958855  0.802241813405999  1.0000
  O   O9        1.0  0.42727751711663586  0.18535193142906792  0.7604637304466451  1.0000
  O   O10       1.0  0.283407184902444  0.31331822221909533  0.6460596110209735  1.0000
  O   O11       1.0  0.9402919829017264  0.017141908683697693  0.2220614657671831  1.0000
  O   O12       1.0  0.5332469561071775  0.9877022920227319  0.075124045710254  1.0000
  O   O13       1.0  0.2540853354657884  0.7800729908194626  0.8412706734670792  1.0000
  O   O14       1.0  0.6830276908294763  0.7284747754456475  0.08620389600048384  1.0000
  O   O15       1.0  0.2696087613023792  0.42079319926097014  0.28932636621084384  1.0000
  O   O16       1.0  0.4957295382560005  0.6953550950074714  0.1245885415810335  1.0000
  O   O17       1.0  0.247122814427712  0.9029266999223182  0.293329362838449  1.0000
  O   O18       1.0  0.14957955986392335  0.8290634025443069  0.5504498069640249  1.0000
  O   O19       1.0  0.07054875607991562  0.5485275205628568  0.6433859940225375  1.0000
  O   O20       1.0  0.9620866652351765  0.9307665353653647  0.4869714970639052  1.0000
  O   O21       1.0  0.45344478678453015  0.9400717388489284  0.4596650015137129  1.0000
  O   O22       1.0  0.4038214012050503  0.909695203618412  0.14180720696447224  1.0000
  O   O23       1.0  0.5658958312433242  0.3996284216955246  0.3350661767181009  1.0000
  O   O24       1.0  0.3604938117692882  0.4920855843602112  0.8508251044277131  1.0000
data_image46
_chemical_formula_structural       O24
_chemical_formula_sum              "O24"
_cell_length_a       6.65259782
_cell_length_b       6.76810209
_cell_length_c       7.45043691
_cell_angle_alpha    90.0
_cell_angle_beta     90.0
_cell_angle_gamma    90.0

_space_group_name_H-M_alt    "P 1"
_space_group_IT_number       1

loop_
  _space_group_symop_operation_xyz
  'x, y, z'

loop_
  _atom_site_type_symbol
  _atom_site_label
  _atom_site_symmetry_multiplicity
  _atom_site_fract_x
  _atom_site_fract_y
  _atom_site_fract_z
  _atom_site_occupancy
  O   O1        1.0  0.30607209402660374  0.9808971588281565  0.7517096052833949  1.0000
  O   O2        1.0  0.8786606507055694  0.17401875930227106  0.266592598148236  1.0000
  O   O3        1.0  0.7690651335869916  0.0026871503723668866  0.1887808819883503  1.0000
  O   O4        1.0  0.21146757710619113  0.5787955503710691  0.6569952328223252  1.0000
  O   O5        1.0  0.2609073928470025  0.750237533415202  0.19757218056111014  1.0000
  O   O6        1.0  0.900236853674869  0.15479483487149537  0.5783526146879012  1.0000
  O   O7        1.0  0.47720078475322225  0.6120099299587309  0.972022982994531  1.0000
  O   O8        1.0  0.1403740207606461  0.2558929371589329  0.46230477570497897  1.0000
  O   O9        1.0  0.28344937370638945  0.802609649193073  0.19426412449683994  1.0000
  O   O10       1.0  0.8259404153047853  0.46294413205487217  0.5956608646074528  1.0000
  O   O11       1.0  0.039738704898809374  0.8739204305311432  0.42772314052126603  1.0000
  O   O12       1.0  0.6408500703546451  0.06412410435586935  0.14960955848073354  1.0000
  O   O13       1.0  0.5430453162989579  0.8010453854803927  0.26604999632399995  1.0000
  O   O14       1.0  0.6591104515246116  0.5169968099507969  0.7349167771203611  1.0000
  O   O15       1.0  0.7744601109994846  0.3428740789031508  0.7393908260182798  1.0000
  O   O16       1.0  0.9209752529100115  0.2956440938760352  0.5986568673833972  1.0000
  O   O17       1.0  0.49624428088282  0.7782256923092064  0.3322097416248653  1.0000
  O   O18       1.0  0.08055010082898661  0.6563929861404176  0.860631651688891  1.0000
  O   O19       1.0  0.5398175699192507  0.27973386497797037  0.9894395158153202  1.0000
  O   O20       1.0  0.6129847069971675  0.02351997040295828  0.9554757653554589  1.0000
  O   O21       1.0  0.22736022199387662  0.3183156137674814  0.20947689639160672  1.0000
  O   O22       1.0  0.06631332910137644  0.030850983548589284  0.2792463340770155  1.0000
  O   O23       1.0  0.7965412682569877  0.3576898322899069  0.5882120627102267  1.0000
  O   O24       1.0  0.5486343147367734  0.8857785159557352  0.004705008090240881  1.0000
data_image47
_chemical_formula_structural       O24
_chemical_formula_sum              "O24"
_cell_length_a       6.65259782
_cell_length_b       6.76810209
_cell_length_c       7.45043691
_cell_angle_alpha    90.0
_cell_angle_beta     90.0
_cell_angle_gamma    90.0

_space_group_name_H-M_alt    "P 1"
_space_group_IT_number       1

loop_
  _space_group_symop_operation_xyz
  'x, y, z'

loop_
  _atom_site_type_symbol
  _atom_site_label
  _atom_site_symmetry_multiplicity
  _atom_site_fract_x
  _atom_site_fract_y
  _atom_site_fract_z
  _atom_site_occupancy
  O   O1        1.0  0.9883496784896124  0.0033322361050522886  0.28481070997804636  1.0000
  O   O2        1.0  0.42404739622361376  0.16653620577562833  0.9053418869289089  1.0000
  O   O3        1.0  0.21615859065786935  0.6397947388759349  0.877662776154466  1.0000
  O   O4        1.0  0.22115792167983273  0.537996340411155  0.29227999602409227  1.0000
  O   O5        1.0  0.26310840554651804  0.5905805873298959  0.024218096095864894  1.0000
  O   O6        1.0  0.16463169292728708  0.7714775626737946  0.5921503221070452  1.0000
  O   O7        1.0  0.7168702713656785  0.822088876971975  0.538514350027981  1.0000
  O   O8        1.0  0.1646402955375379  0.589636693126522  0.41465178014186677  1.0000
  O   O9        1.0  0.5389774379582377  0.4538734934230888  0.5794953323002119  1.0000
  O   O10       1.0  0.9847172395084272  0.48217130961984367  0.5944694220788733  1.0000
  O   O11       1.0  0.9670062946770486  0.31280759556102566  0.026046877865155693  1.0000
  O   O12       1.0  0.06252551220313762  0.8028413415013347  0.671104693741654  1.0000
  O   O13       1.0  0.8550327558477875  0.6718701986974338  0.5088997550628847  1.0000
  O   O14       1.0  0.5285948868549895  0.4361756265279837  0.19027010341096684  1.0000
  O   O15       1.0  0.7422429838721598  0.8466527667785613  0.9394003333618457  1.0000
  O   O16       1.0  0.0925932895988808  0.5894943891055391  0.602010728543064  1.0000
  O   O17       1.0  0.5227592927512887  0.8126663393595663  0.46501399225871864  1.0000
  O   O18       1.0  0.8260946022201097  0.6122134549586917  0.2036174207823933  1.0000
  O   O19       1.0  0.1505895612713175  0.31182213210195187  0.6087604297354119  1.0000
  O   O20       1.0  0.6267707030965539  0.6118615608220352  0.7136652440149192  1.0000
  O   O21       1.0  0.319819852229557  0.5170487984578358  0.24192364548162004  1.0000
  O   O22       1.0  0.01239136748972669  0.3628859096027668  0.2493100779533961  1.0000
  O   O23       1.0  0.2463322132571193  0.9256479910181952  0.5810962695804847  1.0000
  O   O24       1.0  0.3645877518351881  0.12852384658617666  0.8952857576223323  1.0000
data_image48
_chemical_formula_structural       O24
_chemical_formula_sum              "O24"
_cell_length_a       6.65259782
_cell_length_b       6.76810209
_cell_length_c       7.45043691
_cell_angle_alpha    90.0
_cell_angle_beta     90.0
_cell_angle_gamma    90.0

_space_group_name_H-M_alt    "P 1"
_space_group_IT_number       1

loop_
  _space_group_symop_operation_xyz
  'x, y, z'

loop_
  _atom_site_type_symbol
  _atom_site_label
  _atom_site_symmetry_multiplicity
  _atom_site_fract_x
  _atom_site_fract_y
  _atom_site_fract_z
  _atom_site_occupancy
  O   O1        1.0  0.8933529084606562  0.07511821360822069  0.9890631395537639  1.0000
  O   O2        1.0  0.17152896197876544  0.2235428958956618  0.5220010075627215  1.0000
  O   O3        1.0  0.8089565376576502  0.16542735929397168  0.5196025152690709  1.0000
  O   O4        1.0  0.3820081142430354  0.16311423389379343  0.6084539306518764  1.0000
  O   O5        1.0  0.9926540164306061  0.8208562373401946  0.35817909388424596  1.0000
  O   O6        1.0  0.3501976384268346  0.6522442072382546  0.06888919828634243  1.0000
  O   O7        1.0  0.6032812076200571  0.8628750963689527  0.07205138609788264  1.0000
  O   O8        1.0  0.011592109789489768  0.5208503822796047  0.5928071173548233  1.0000
  O   O9        1.0  0.30016156311830855  0.577112317967476  0.07710823391607846  1.0000
  O   O10       1.0  0.42952563843027747  0.053211388753879874  0.5006433242670028  1.0000
  O   O11       1.0  0.6466831016514334  0.5376613355911104  0.4884950983177987  1.0000
  O   O12       1.0  0.5761118028240162  0.5860075624950696  0.7495817613962572  1.0000
  O   O13       1.0  0.4449640460588853  0.6998837438877672  0.6461145038119867  1.0000
  O   O14       1.0  0.3597373109078035  0.75458133633947  0.10363491987118323  1.0000
  O   O15       1.0  0.07128061107414396  0.8826724097907572  0.05738709232036854  1.0000
  O   O16       1.0  0.3812494091243934  0.29769022973164283  0.23436476641109039  1.0000
  O   O17       1.0  0.37747626572308945  0.48193123310738883  0.1449440912101636  1.0000
  O   O18       1.0  0.8019960048186476  0.49044685927583487  0.5467382573442592  1.0000
  O   O19       1.0  0.2690213079977184  0.9266386322015023  0.9587768140627304  1.0000
  O   O20       1.0  0.9508654992332595  0.3766767528722994  0.6787337503228628  1.0000
  O   O21       1.0  0.5959962065026048  0.36267670230881777  0.08303794228731931  1.0000
  O   O22       1.0  0.30602297023324354  0.9152836673310958  0.6120602450005208  1.0000
  O   O23       1.0  0.26804206844281  0.40389086106733885  0.34680407769747035  1.0000
  O   O24       1.0  0.007294700567399559  0.16960633859434893  0.040527736040530726  1.0000
data_image49
_chemical_formula_structural       O24
_chemical_formula_sum              "O24"
_cell_length_a       6.65259782
_cell_length_b       6.76810209
_cell_length_c       7.45043691
_cell_angle_alpha    90.0
_cell_angle_beta     90.0
_cell_angle_gamma    90.0

_space_group_name_H-M_alt    "P 1"
_space_group_IT_number       1

loop_
  _space_group_symop_operation_xyz
  'x, y, z'

loop_
  _atom_site_type_symbol
  _atom_site_label
  _atom_site_symmetry_multiplicity
  _atom_site_fract_x
  _atom_site_fract_y
  _atom_site_fract_z
  _atom_site_occupancy
  O   O1        1.0  0.7062345579324756  0.24313443301798543  0.6696366782998666  1.0000
  O   O2        1.0  0.980003286334977  0.26312430773032247  0.9092768969790086  1.0000
  O   O3        1.0  0.36146856189589016  0.8753825191961369  0.34837810893077403  1.0000
  O   O4        1.0  0.9028086908671185  0.7504899251161987  0.5311210134718749  1.0000
  O   O5        1.0  0.2864769106527092  0.16816654534704867  0.869863855681615  1.0000
  O   O6        1.0  0.37803136236107093  0.8360756424854117  0.307599596275395  1.0000
  O   O7        1.0  0.1876737033567224  0.4885766235420306  0.8101414617958653  1.0000
  O   O8        1.0  0.4851504590260447  0.011121096584247425  0.8963707713701297  1.0000
  O   O9        1.0  0.11150570501195034  0.2628434366088186  0.12584576446533902  1.0000
  O   O10       1.0  0.9208692074207647  0.8125668279362799  0.2550566372137837  1.0000
  O   O11       1.0  0.35517785275169445  0.6304639573645545  0.6278447198710637  1.0000
  O   O12       1.0  0.3341893884426099  0.8900946612193366  0.6585643345460994  1.0000
  O   O13       1.0  0.24392155856912723  0.3659422937053023  0.04296466622326989  1.0000
  O   O14       1.0  0.5166624304838479  0.6865495520469267  0.10327898071705022  1.0000
  O   O15       1.0  0.4958651197962354  0.7711709549857346  0.5532081089813801  1.0000
  O   O16       1.0  0.5561801068306522  0.13951758948951465  0.07399144255077772  1.0000
  O   O17       1.0  0.670473282218154  0.5050347057440376  0.4297078156787393  1.0000
  O   O18       1.0  0.016491764501552097  0.5567032439248578  0.8706764398884843  1.0000
  O   O19       1.0  0.5042041186279675  0.19990398983645719  0.9221448889511521  1.0000
  O   O20       1.0  0.7435078574417275  0.42589648171997396  0.8902951673953794  1.0000
  O   O21       1.0  0.28524839044257533  0.16435167223971803  0.27709154897638655  1.0000
  O   O22       1.0  0.3173367077633884  0.006216322110049077  0.2151750705743325  1.0000
  O   O23       1.0  0.240612210078325  0.3046985353794298  0.6713449495855457  1.0000
  O   O24       1.0  0.39990677702280664  0.6419746721267074  0.9404210811080702  1.0000
data_image50
_chemical_formula_structural       O24
_chemical_formula_sum              "O24"
_cell_length_a       6.65259782
_cell_length_b       6.76810209
_cell_length_c       7.45043691
_cell_angle_alpha    90.0
_cell_angle_beta     90.0
_cell_angle_gamma    90.0

_space_group_name_H-M_alt    "P 1"
_space_group_IT_number       1

loop_
  _space_group_symop_operation_xyz
  'x, y, z'

loop_
  _atom_site_type_symbol
  _atom_site_label
  _atom_site_symmetry_multiplicity
  _atom_site_fract_x
  _atom_site_fract_y
  _atom_site_fract_z
  _atom_site_occupancy
  O   O1        1.0  0.4168649569619447  0.7324307255767053  0.9723526483285241  1.0000
  O   O2        1.0  0.5294188531552209  0.8818521811444953  0.006137294271866267  1.0000
  O   O3        1.0  0.8903457340202294  0.46700175138539635  0.2151534100412391  1.0000
  O   O4        1.0  0.7112872438656268  0.43833757310585497  0.2985774536021495  1.0000
  O   O5        1.0  0.2595942602492869  0.6144879814928572  0.11882307480482268  1.0000
  O   O6        1.0  0.636633340734079  0.5502445792290018  0.14633021445115446  1.0000
  O   O7        1.0  0.8897683060849886  0.34017307642352534  0.9271487520090886  1.0000
  O   O8        1.0  0.13821937143802643  0.27168912792694755  0.7765015672484878  1.0000
  O   O9        1.0  0.9386164855313837  0.3471203996632539  0.7129778004891705  1.0000
  O   O10       1.0  0.7271128122483788  0.7557879555301952  0.30014813381603744  1.0000
  O   O11       1.0  0.605878832480812  0.896074529577163  0.6239592899073614  1.0000
  O   O12       1.0  0.38479740111506544  0.5826429349253885  0.3630250619316939  1.0000
  O   O13       1.0  0.4145506005297648  0.07697130188171286  0.3935836696837214  1.0000
  O   O14       1.0  0.7936959537910298  0.5483044008433353  0.6941438345243114  1.0000
  O   O15       1.0  0.7112807516241446  0.6237718311022036  0.12319628111436032  1.0000
  O   O16       1.0  0.7585009759332024  0.9580569280569762  0.08759078236016649  1.0000
  O   O17       1.0  0.957063740304875  0.4537108841477675  0.4344912858241514  1.0000
  O   O18       1.0  0.8141124806334119  0.35961825531558134  0.3067771488276776  1.0000
  O   O19       1.0  0.9625658688491967  0.8937167957446945  0.03962819659500383  1.0000
  O   O20       1.0  0.19622394532416365  0.5569632266124245  0.12464974926479044  1.0000
  O   O21       1.0  0.14075598063209327  0.879421610123245  0.06212417841857132  1.0000
  O   O22       1.0  0.44212878405232914  0.9678680024735513  0.8051950741501059  1.0000
  O   O23       1.0  0.8927285227655375  0.1679119805121445  0.3163925554144953  1.0000
  O   O24       1.0  0.7878548156541001  0.6358419482412501  0.15109254120761761  1.0000
data_image51
_chemical_formula_structural       O24
_chemical_formula_sum              "O24"
_cell_length_a       6.65259782
_cell_length_b       6.76810209
_cell_length_c       7.45043691
_cell_angle_alpha    90.0
_cell_angle_beta     90.0
_cell_angle_gamma    90.0

_space_group_name_H-M_alt    "P 1"
_space_group_IT_number       1

loop_
  _space_group_symop_operation_xyz
  'x, y, z'

loop_
  _atom_site_type_symbol
  _atom_site_label
  _atom_site_symmetry_multiplicity
  _atom_site_fract_x
  _atom_site_fract_y
  _atom_site_fract_z
  _atom_site_occupancy
  O   O1        1.0  0.9345296362880617  0.29966822693677386  0.6854713822394842  1.0000
  O   O2        1.0  0.19888418217306025  0.49434661449777195  0.38963118531682994  1.0000
  O   O3        1.0  0.5839810923207551  0.49662829854059964  0.017058268713299185  1.0000
  O   O4        1.0  0.8992533269943124  0.852217268203276  0.595786573642954  1.0000
  O   O5        1.0  0.6195950427645585  0.3052045302829356  0.3546091314419755  1.0000
  O   O6        1.0  0.5044528341149999  0.3278507409759186  0.46291208119146177  1.0000
  O   O7        1.0  0.25980335098097385  0.06953490120031347  0.98129675776363  1.0000
  O   O8        1.0  0.13286729027458932  0.7003174085984938  0.548135563643882  1.0000
  O   O9        1.0  0.8688116118937614  0.14922214708349202  0.6232508272951236  1.0000
  O   O10       1.0  0.663735567151889  0.08477847126118832  0.5765800353328814  1.0000
  O   O11       1.0  0.958186596761152  0.24030359271273483  0.8027949767965765  1.0000
  O   O12       1.0  0.7083743745824904  0.8544435227959184  0.682343596345163  1.0000
  O   O13       1.0  0.616527300197049  0.3870747646433301  0.2443113407571218  1.0000
  O   O14       1.0  0.08094533649273217  0.9421513044217136  0.29836138311384275  1.0000
  O   O15       1.0  0.6800089210737497  0.9196136350510642  0.0548160471371375  1.0000
  O   O16       1.0  0.9550475355263188  0.5462599019210757  0.2730536167473474  1.0000
  O   O17       1.0  0.3360763995024172  0.3215301182008261  0.9130758374003562  1.0000
  O   O18       1.0  0.9754214383028739  0.6742061135591939  0.6311952406540513  1.0000
  O   O19       1.0  0.7823959184497653  0.7272916209767573  0.08767379912751494  1.0000
  O   O20       1.0  0.8401748020805826  0.32543406200602476  0.9391622733055556  1.0000
  O   O21       1.0  0.9791891000932083  0.016036986562539823  0.32257344884305894  1.0000
  O   O22       1.0  0.5261747977056075  0.07319282060052501  0.5275581672322005  1.0000
  O   O23       1.0  0.1585213973230566  0.7837827940675197  0.6698354158397706  1.0000
  O   O24       1.0  0.7370421659752537  0.4089101415956975  0.31851304942028946  1.0000
data_image52
_chemical_formula_structural       O24
_chemical_formula_sum              "O24"
_cell_length_a       6.65259782
_cell_length_b       6.76810209
_cell_length_c       7.45043691
_cell_angle_alpha    90.0
_cell_angle_beta     90.0
_cell_angle_gamma    90.0

_space_group_name_H-M_alt    "P 1"
_space_group_IT_number       1

loop_
  _space_group_symop_operation_xyz
  'x, y, z'

loop_
  _atom_site_type_symbol
  _atom_site_label
  _atom_site_symmetry_multiplicity
  _atom_site_fract_x
  _atom_site_fract_y
  _atom_site_fract_z
  _atom_site_occupancy
  O   O1        1.0  0.34215282095829025  0.9412409543147078  0.9136742193077225  1.0000
  O   O2        1.0  0.5386108813181636  0.25647094109808677  0.5430311095110483  1.0000
  O   O3        1.0  0.05753215600270778  0.024555127718485892  0.24835566675756127  1.0000
  O   O4        1.0  0.9364686523322234  0.7418983877087157  0.7946000742863362  1.0000
  O   O5        1.0  0.11624952279089484  0.9092613476786937  0.36743923853646265  1.0000
  O   O6        1.0  0.7864842520148159  0.1309308567010703  0.8247818900745187  1.0000
  O   O7        1.0  0.5421182811235497  0.033612031221991856  0.20638267371396068  1.0000
  O   O8        1.0  0.0911778010049602  0.5075999810360372  0.4866247026802739  1.0000
  O   O9        1.0  0.5320558209714363  0.2749367634605733  0.30005065642035333  1.0000
  O   O10       1.0  0.04221869681350654  0.05261248361875914  0.6885664956789697  1.0000
  O   O11       1.0  0.1781621326226741  0.5116783125704387  0.1341676528172684  1.0000
  O   O12       1.0  0.6049477029519039  0.5999233517359244  0.48240646030171774  1.0000
  O   O13       1.0  0.17790315396996448  0.39565052549005486  0.5713652045669733  1.0000
  O   O14       1.0  0.30531418378814124  0.9839683600584976  0.09085239488240404  1.0000
  O   O15       1.0  0.8205616158957127  0.3362954477779567  0.3357538034324534  1.0000
  O   O16       1.0  0.5045441517195286  0.13212091540663096  0.846476105543843  1.0000
  O   O17       1.0  0.9521034220779256  0.2183630620711483  0.6709025453649247  1.0000
  O   O18       1.0  0.4931237393648189  0.7591390205780044  0.7649700885522179  1.0000
  O   O19       1.0  0.7533302987376373  0.02535458172133076  0.19070989989995724  1.0000
  O   O20       1.0  0.5515562224136374  0.8205142907972913  0.6331037799682235  1.0000
  O   O21       1.0  0.8558335323104984  0.17238492565229535  0.23316420354694856  1.0000
  O   O22       1.0  0.2623466392396949  0.8883461659570457  0.7064921100391075  1.0000
  O   O23       1.0  0.5389115778198175  0.1380494555705809  0.2763377756746195  1.0000
  O   O24       1.0  0.016292757024530147  0.14509271189126594  0.6897912620297575  1.0000
data_image53
_chemical_formula_structural       O24
_chemical_formula_sum              "O24"
_cell_length_a       6.65259782
_cell_length_b       6.76810209
_cell_length_c       7.45043691
_cell_angle_alpha    90.0
_cell_angle_beta     90.0
_cell_angle_gamma    90.0

_space_group_name_H-M_alt    "P 1"
_space_group_IT_number       1

loop_
  _space_group_symop_operation_xyz
  'x, y, z'

loop_
  _atom_site_type_symbol
  _atom_site_label
  _atom_site_symmetry_multiplicity
  _atom_site_fract_x
  _atom_site_fract_y
  _atom_site_fract_z
  _atom_site_occupancy
  O   O1        1.0  0.6988317398645449  0.7349970018331078  0.883094014134258  1.0000
  O   O2        1.0  0.08662912114232313  0.05106417219576542  0.38290917322615314  1.0000
  O   O3        1.0  0.673264850047417  0.28935913543682545  0.6382550995331258  1.0000
  O   O4        1.0  0.3209167316736057  0.5598739109477151  0.5192994616636497  1.0000
  O   O5        1.0  0.9942025075579295  0.4341765304998262  0.2369312526716385  1.0000
  O   O6        1.0  0.12102237600947774  0.3088613270283531  0.28401688801386626  1.0000
  O   O7        1.0  0.24218660843337148  0.13384534907459056  0.026469606844329974  1.0000
  O   O8        1.0  0.8812051924905973  0.46539702502195723  0.6408982788707362  1.0000
  O   O9        1.0  0.16102683584176702  0.515103845304111  0.6396002686960855  1.0000
  O   O10       1.0  0.7515847413169467  0.41263493641281457  0.7555835551211203  1.0000
  O   O11       1.0  0.5622228288175393  0.6169738026364939  0.26994870112321223  1.0000
  O   O12       1.0  0.5322795342144673  0.8889997700607637  0.4398456436028937  1.0000
  O   O13       1.0  0.4168259215002763  0.5862483836244792  0.004320385472965427  1.0000
  O   O14       1.0  0.07648717137635686  0.7657166223216336  0.048248950041624994  1.0000
  O   O15       1.0  0.6728341872658348  0.23042107559740543  0.10078370245173573  1.0000
  O   O16       1.0  0.8139383770921995  0.5232570654770825  0.9695956055657007  1.0000
  O   O17       1.0  0.2812589770364866  0.5478253003384452  0.1133716323729459  1.0000
  O   O18       1.0  0.7114726073014026  0.2560407507990021  0.6939567172667012  1.0000
  O   O19       1.0  0.003161397769872565  0.2623240544944565  0.4028508502015029  1.0000
  O   O20       1.0  0.8002444703124638  0.7163449352738098  0.08720519522648829  1.0000
  O   O21       1.0  0.3235936410856084  0.552629431054811  0.5592671535250702  1.0000
  O   O22       1.0  0.7495393973076716  0.5117102340300335  0.11267342721112072  1.0000
  O   O23       1.0  0.539610258250832  0.8835031674389029  0.5168989805933961  1.0000
  O   O24       1.0  0.5856605377894084  0.7526921953112833  0.6739754845311836  1.0000
data_image54
_chemical_formula_structural       O24
_chemical_formula_sum              "O24"
_cell_length_a       6.65259782
_cell_length_b       6.76810209
_cell_length_c       7.45043691
_cell_angle_alpha    90.0
_cell_angle_beta     90.0
_cell_angle_gamma    90.0

_space_group_name_H-M_alt    "P 1"
_space_group_IT_number       1

loop_
  _space_group_symop_operation_xyz
  'x, y, z'

loop_
  _atom_site_type_symbol
  _atom_site_label
  _atom_site_symmetry_multiplicity
  _atom_site_fract_x
  _atom_site_fract_y
  _atom_site_fract_z
  _atom_site_occupancy
  O   O1        1.0  0.8856144128512824  0.8569472793315072  0.04235810371756088  1.0000
  O   O2        1.0  0.7627017338454607  0.6588480509417423  0.9484344609908248  1.0000
  O   O3        1.0  0.5721560979727656  0.9335830202326179  0.7958786851959303  1.0000
  O   O4        1.0  0.48274563257837144  0.6457827432022896  0.19825786028468428  1.0000
  O   O5        1.0  0.5004446599778021  0.9803845558008106  0.6737408211065485  1.0000
  O   O6        1.0  0.22597474207213963  0.7201757947386795  0.5552259628093452  1.0000
  O   O7        1.0  0.3293246766525044  0.95566492434682  0.4646798422036227  1.0000
  O   O8        1.0  0.13034112220339011  0.14117456538951956  0.3279989587899763  1.0000
  O   O9        1.0  0.6962489648940391  0.9316382998222252  0.40109972806385485  1.0000
  O   O10       1.0  0.6744356187837184  0.9622141159484272  0.8895681819267338  1.0000
  O   O11       1.0  0.8687002461992961  0.9700650296435924  0.41891266162565444  1.0000
  O   O12       1.0  0.14466173247637926  0.4907597451019683  0.7063502421515295  1.0000
  O   O13       1.0  0.870018809735484  0.31020923229516484  0.7795948537968798  1.0000
  O   O14       1.0  0.25472875012201257  0.4143586913996842  0.11158278169818914  1.0000
  O   O15       1.0  0.08814160237670876  0.7866935378406197  0.4000946158193983  1.0000
  O   O16       1.0  0.7771527900831643  0.7815260123879852  0.30703511447427445  1.0000
  O   O17       1.0  0.8152463462402011  0.756465443810157  0.047720553884573746  1.0000
  O   O18       1.0  0.8450247948931064  0.8890512247162405  0.48878651682753116  1.0000
  O   O19       1.0  0.7592325541481841  0.971385720825765  0.9749446308269398  1.0000
  O   O20       1.0  0.30436412417839165  0.42762204485370603  0.5256497961408968  1.0000
  O   O21       1.0  0.023666124587180093  0.5154205181024736  0.15075078933659825  1.0000
  O   O22       1.0  0.8577517034718767  0.7915847354161087  0.3393646760378033  1.0000
  O   O23       1.0  0.1296096173064143  0.9287652297061868  0.8961731037634308  1.0000
  O   O24       1.0  0.0017131472604887676  0.17967949526973825  0.5557970872614533  1.0000
data_image55
_chemical_formula_structural       O24
_chemical_formula_sum              "O24"
_cell_length_a       6.65259782
_cell_length_b       6.76810209
_cell_length_c       7.45043691
_cell_angle_alpha    90.0
_cell_angle_beta     90.0
_cell_angle_gamma    90.0

_space_group_name_H-M_alt    "P 1"
_space_group_IT_number       1

loop_
  _space_group_symop_operation_xyz
  'x, y, z'

loop_
  _atom_site_type_symbol
  _atom_site_label
  _atom_site_symmetry_multiplicity
  _atom_site_fract_x
  _atom_site_fract_y
  _atom_site_fract_z
  _atom_site_occupancy
  O   O1        1.0  0.5877080735226627  0.36329927458427846  0.4462198492255993  1.0000
  O   O2        1.0  0.017981390257773455  0.7427835771450191  0.5914253844816812  1.0000
  O   O3        1.0  0.8097071598749608  0.38993392942938954  0.1349741400917992  1.0000
  O   O4        1.0  0.5300749785310472  0.05497983938221296  0.604391111312907  1.0000
  O   O5        1.0  0.23381012814570568  0.2582400898972992  0.8574618146913053  1.0000
  O   O6        1.0  0.589265263168727  0.7124342948791309  0.9474151153772254  1.0000
  O   O7        1.0  0.10871224853508465  0.515599167594246  0.1717416828723799  1.0000
  O   O8        1.0  0.2734441632492235  0.18428410432534292  0.5109360766073223  1.0000
  O   O9        1.0  0.016465983950183727  0.18777078024140792  0.31743705896951724  1.0000
  O   O10       1.0  0.16230260498196003  0.7286841071509116  0.9427538420786732  1.0000
  O   O11       1.0  0.4140292071606382  0.7000051578943385  0.946333447125653  1.0000
  O   O12       1.0  0.883899199507141  0.4477506219409406  0.9669249817961827  1.0000
  O   O13       1.0  0.8261114125489257  0.8952812627976527  0.18950739415595308  1.0000
  O   O14       1.0  0.22350407848716713  0.08807765768142417  0.37408172279174323  1.0000
  O   O15       1.0  0.08926946382052847  0.1400100311730057  0.9443732534418814  1.0000
  O   O16       1.0  0.708481302563996  0.11907724629963923  0.7096207865688484  1.0000
  O   O17       1.0  0.14129774876346346  0.5860902161657577  0.19831502461602213  1.0000
  O   O18       1.0  0.5778965852659894  0.6769463318923954  0.5524247328285128  1.0000
  O   O19       1.0  0.9267263699875912  0.10271842312249646  0.11476257738831919  1.0000
  O   O20       1.0  0.80268530111789  0.6781345064910056  0.46011490063392557  1.0000
  O   O21       1.0  0.8378274660426541  0.7721602790115867  0.5042593659145496  1.0000
  O   O22       1.0  0.2281532134511508  0.004200167051749304  0.2565036709420383  1.0000
  O   O23       1.0  0.6916336136164318  0.12269409685541177  0.8017715286950988  1.0000
  O   O24       1.0  0.3190130421369304  0.5288448176370366  0.4562505677004083  1.0000
data_image56
_chemical_formula_structural       O24
_chemical_formula_sum              "O24"
_cell_length_a       6.65259782
_cell_length_b       6.76810209
_cell_length_c       7.45043691
_cell_angle_alpha    90.0
_cell_angle_beta     90.0
_cell_angle_gamma    90.0

_space_group_name_H-M_alt    "P 1"
_space_group_IT_number       1

loop_
  _space_group_symop_operation_xyz
  'x, y, z'

loop_
  _atom_site_type_symbol
  _atom_site_label
  _atom_site_symmetry_multiplicity
  _atom_site_fract_x
  _atom_site_fract_y
  _atom_site_fract_z
  _atom_site_occupancy
  O   O1        1.0  0.8957197609124705  0.47910568750376115  0.27094437793130055  1.0000
  O   O2        1.0  0.9522601671051234  0.2202151854762633  0.03434476445886503  1.0000
  O   O3        1.0  0.6433971743099391  0.2826495853951201  0.44422140100505203  1.0000
  O   O4        1.0  0.24612839698966127  0.8779992418549227  0.08694705493417132  1.0000
  O   O5        1.0  0.0962417462724261  0.6674323295374052  0.24534247023530042  1.0000
  O   O6        1.0  0.7355583149524136  0.7730308766294911  0.15453203951619798  1.0000
  O   O7        1.0  0.5669456154118961  0.8572056083002053  0.23281997582671465  1.0000
  O   O8        1.0  0.09390254772733897  0.8130663746851496  0.15807603845314588  1.0000
  O   O9        1.0  0.17102172037266428  0.3612806559940509  0.08749658927263226  1.0000
  O   O10       1.0  0.512798906675016  0.4539443325902539  0.6708152907376643  1.0000
  O   O11       1.0  0.7968195300873049  0.44068852785858326  0.9338203418592457  1.0000
  O   O12       1.0  0.7803337739023846  0.19545000208017882  0.5944283054996049  1.0000
  O   O13       1.0  0.5261205765345949  0.9295419949048664  0.25984703822177835  1.0000
  O   O14       1.0  0.7381458445815952  0.5323302312463056  0.22024761739885435  1.0000
  O   O15       1.0  0.1603018893049324  0.4497775584459305  0.8410118847968988  1.0000
  O   O16       1.0  0.2304804677150969  0.7710148281767033  0.06128586299882954  1.0000
  O   O17       1.0  0.5942997928577824  0.36494287611276377  0.34520726219489006  1.0000
  O   O18       1.0  0.6184729666128987  0.6825318107439671  0.9842385940137319  1.0000
  O   O19       1.0  0.5767238407424884  0.6847637768809705  0.9137757079151925  1.0000
  O   O20       1.0  0.25521764473523945  0.7650642663502367  0.06860301211418118  1.0000
  O   O21       1.0  0.6426766622316791  0.4059924206521828  0.3025618169012887  1.0000
  O   O22       1.0  0.7715545237297192  0.5950549607878202  0.9246263863169588  1.0000
  O   O23       1.0  0.9810419656350859  0.6738706921169069  0.4269282360728539  1.0000
  O   O24       1.0  0.41383616245002486  0.7230461501530954  0.7378779696882702  1.0000
data_image57
_chemical_formula_structural       O24
_chemical_formula_sum              "O24"
_cell_length_a       6.65259782
_cell_length_b       6.76810209
_cell_length_c       7.45043691
_cell_angle_alpha    90.0
_cell_angle_beta     90.0
_cell_angle_gamma    90.0

_space_group_name_H-M_alt    "P 1"
_space_group_IT_number       1

loop_
  _space_group_symop_operation_xyz
  'x, y, z'

loop_
  _atom_site_type_symbol
  _atom_site_label
  _atom_site_symmetry_multiplicity
  _atom_site_fract_x
  _atom_site_fract_y
  _atom_site_fract_z
  _atom_site_occupancy
  O   O1        1.0  0.682845655712299  0.47025611245044274  0.2706502474320587  1.0000
  O   O2        1.0  0.6574989597938838  0.07860249666555319  0.38729396887606526  1.0000
  O   O3        1.0  0.3191351752029732  0.9903174678329378  0.9584719478152692  1.0000
  O   O4        1.0  0.9511356893290213  0.7159144832658058  0.29694373692109366  1.0000
  O   O5        1.0  0.942355856697759  0.23915117870274116  0.4256010909366523  1.0000
  O   O6        1.0  0.25003931537685276  0.8405171344420523  0.15017154481029138  1.0000
  O   O7        1.0  0.7291583391024687  0.5220400299936045  0.460116212732828  1.0000
  O   O8        1.0  0.6415810136240907  0.7877801176800858  0.7378160404623486  1.0000
  O   O9        1.0  0.5792629801289877  0.04377914469660027  0.8755026379803894  1.0000
  O   O10       1.0  0.609154969220981  0.6620325300118566  0.34989416744792834  1.0000
  O   O11       1.0  0.22306916536399513  0.562307302850968  0.6088699558677035  1.0000
  O   O12       1.0  0.8535551464519813  0.1731776935775997  0.4849140259466367  1.0000
  O   O13       1.0  0.3557159675983712  0.5786519318644423  0.03638901926751714  1.0000
  O   O14       1.0  0.34511427867983  0.07939974920009263  0.4311788348131813  1.0000
  O   O15       1.0  0.14301198970679252  0.9048826928483322  0.2230801294790581  1.0000
  O   O16       1.0  0.2543730285469792  0.28590896249806974  0.16592414715341874  1.0000
  O   O17       1.0  0.29776619872427545  0.6218242315080715  0.004402797378133982  1.0000
  O   O18       1.0  0.28272641343210125  0.4629095056152437  0.29755632230080664  1.0000
  O   O19       1.0  0.4907631107380439  0.43027588516270043  0.3508589953671617  1.0000
  O   O20       1.0  0.16039501439081505  0.9663753719069064  0.33602755413448904  1.0000
  O   O21       1.0  0.9159193818049971  0.2622115809645038  0.2808708036900498  1.0000
  O   O22       1.0  0.5610520988120697  0.6487783405609662  0.9439097970025614  1.0000
  O   O23       1.0  0.04609965372219449  0.7935456241830252  0.7136375647860405  1.0000
  O   O24       1.0  0.7082705920765875  0.8793604301245068  0.20991851067810785  1.0000
data_image58
_chemical_formula_structural       O24
_chemical_formula_sum              "O24"
_cell_length_a       6.65259782
_cell_length_b       6.76810209
_cell_length_c       7.45043691
_cell_angle_alpha    90.0
_cell_angle_beta     90.0
_cell_angle_gamma    90.0

_space_group_name_H-M_alt    "P 1"
_space_group_IT_number       1

loop_
  _space_group_symop_operation_xyz
  'x, y, z'

loop_
  _atom_site_type_symbol
  _atom_site_label
  _atom_site_symmetry_multiplicity
  _atom_site_fract_x
  _atom_site_fract_y
  _atom_site_fract_z
  _atom_site_occupancy
  O   O1        1.0  0.9247406705399044  0.19220987660082756  0.8161804238916375  1.0000
  O   O2        1.0  0.3008613882193458  0.29501422391695087  0.05290225046383057  1.0000
  O   O3        1.0  0.2803091846872121  0.45264457911252975  0.24017535417806357  1.0000
  O   O4        1.0  0.31561428212808096  0.5878507316592732  0.4875948500589402  1.0000
  O   O5        1.0  0.6999811088153365  0.950909090526693  0.3417224139375321  1.0000
  O   O6        1.0  0.019379318092433095  0.11710973575645767  0.08580248596990714  1.0000
  O   O7        1.0  0.27308600361948265  0.7462335834283067  0.8276958677524817  1.0000
  O   O8        1.0  0.5161092991766054  0.9201901856577024  0.8276377789734397  1.0000
  O   O9        1.0  0.37306720549895545  0.9569645261690312  0.06363242373481626  1.0000
  O   O10       1.0  0.6426361004414503  0.17420890481298557  0.8834580821203417  1.0000
  O   O11       1.0  0.8569567209669913  0.15310873736234498  0.041604264930356294  1.0000
  O   O12       1.0  0.9217107287731778  0.5806783560237818  0.8488820509810466  1.0000
  O   O13       1.0  0.14432154882524628  0.15275083390588406  0.8528433505125577  1.0000
  O   O14       1.0  0.16558251743845176  0.834580737107899  0.0555806767224567  1.0000
  O   O15       1.0  0.9589153776614694  0.9279119399143383  0.7107733936281875  1.0000
  O   O16       1.0  0.9312308650041814  0.3452065815399692  0.5202779264436685  1.0000
  O   O17       1.0  0.20994864461681573  0.3590439968247665  0.4090484588377876  1.0000
  O   O18       1.0  0.34007457917323336  0.25850447147968225  0.06360714614856988  1.0000
  O   O19       1.0  0.3159422602948325  0.9069840977535932  0.3368463852275454  1.0000
  O   O20       1.0  0.8202269640751183  0.4772567535401322  0.9314795138925547  1.0000
  O   O21       1.0  0.837466168901301  0.5778862256265711  0.8110379373611067  1.0000
  O   O22       1.0  0.13733664274332114  0.981979567790404  0.8015735888038762  1.0000
  O   O23       1.0  0.02999722280947026  0.9957091511096223  0.8343495922363218  1.0000
  O   O24       1.0  0.9845051970187342  0.05506311977660516  0.15529385539412033  1.0000
data_image59
_chemical_formula_structural       O24
_chemical_formula_sum              "O24"
_cell_length_a       6.65259782
_cell_length_b       6.76810209
_cell_length_c       7.45043691
_cell_angle_alpha    90.0
_cell_angle_beta     90.0
_cell_angle_gamma    90.0

_space_group_name_H-M_alt    "P 1"
_space_group_IT_number       1

loop_
  _space_group_symop_operation_xyz
  'x, y, z'

loop_
  _atom_site_type_symbol
  _atom_site_label
  _atom_site_symmetry_multiplicity
  _atom_site_fract_x
  _atom_site_fract_y
  _atom_site_fract_z
  _atom_site_occupancy
  O   O1        1.0  0.5403384117526002  0.8729579494684003  0.7839739978080615  1.0000
  O   O2        1.0  0.8546209290761908  0.9760380128063844  0.6121105347499451  1.0000
  O   O3        1.0  0.7983658142620698  0.7386731846490875  0.6055440735071898  1.0000
  O   O4        1.0  0.058089174064662075  0.443215897805203  0.819298823788813  1.0000
  O   O5        1.0  0.5872117247436108  0.33019460886134766  0.7994593641651591  1.0000
  O   O6        1.0  0.5685838109618544  0.2152892358135432  0.13605298523179954  1.0000
  O   O7        1.0  0.4228079964814242  0.5739975733486062  0.08698226165142842  1.0000
  O   O8        1.0  0.3242877764714649  0.2741859109373763  0.30938522098585963  1.0000
  O   O9        1.0  0.5436504481949669  0.6720834844982164  0.20607404157635756  1.0000
  O   O10       1.0  0.41504626639653  0.19113300005847123  0.4416551186805009  1.0000
  O   O11       1.0  0.5977622116806742  0.2824298771665781  0.6319943122143741  1.0000
  O   O12       1.0  0.37074978235523304  0.885053036523459  0.05584849826118443  1.0000
  O   O13       1.0  0.013477654792950489  0.28367125714430586  0.6870305656193523  1.0000
  O   O14       1.0  0.7298135469609406  0.056469163042493165  0.13840673958475236  1.0000
  O   O15       1.0  0.9259822663480008  0.03389865148346871  0.9980329254176468  1.0000
  O   O16       1.0  0.4187951295316452  0.4613262233688147  0.9367523553773935  1.0000
  O   O17       1.0  0.5515896374563454  0.693163496471243  0.6913084802799858  1.0000
  O   O18       1.0  0.752220858252258  0.08913198855589144  0.6918316582450643  1.0000
  O   O19       1.0  0.23514315145439468  0.8970528468489647  0.9042576507381455  1.0000
  O   O20       1.0  0.7757694293686654  0.32069347926881164  0.5053335855336627  1.0000
  O   O21       1.0  0.33174374437658116  0.7439377134724054  0.31234896698151715  1.0000
  O   O22       1.0  0.6262659852509387  0.5145828120512306  0.7593803067575209  1.0000
  O   O23       1.0  0.9919560299967998  0.9021159044787055  0.30518465003115125  1.0000
  O   O24       1.0  0.5657282256579492  0.5487047016213182  0.5817529529304011  1.0000
data_image60
_chemical_formula_structural       O24
_chemical_formula_sum              "O24"
_cell_length_a       6.65259782
_cell_length_b       6.76810209
_cell_length_c       7.45043691
_cell_angle_alpha    90.0
_cell_angle_beta     90.0
_cell_angle_gamma    90.0

_space_group_name_H-M_alt    "P 1"
_space_group_IT_number       1

loop_
  _space_group_symop_operation_xyz
  'x, y, z'

loop_
  _atom_site_type_symbol
  _atom_site_label
  _atom_site_symmetry_multiplicity
  _atom_site_fract_x
  _atom_site_fract_y
  _atom_site_fract_z
  _atom_site_occupancy
  O   O1        1.0  0.6258236567373388  0.2920175070175901  0.5323238535929704  1.0000
  O   O2        1.0  0.7161331167299068  0.12182164760451997  0.4821124150432752  1.0000
  O   O3        1.0  0.93898619140964  0.7534989704145119  0.6963054698426276  1.0000
  O   O4        1.0  0.28549435018248914  0.9408407500504836  0.03525827123121417  1.0000
  O   O5        1.0  0.5119867943631107  0.8413127669191454  0.8715904116506863  1.0000
  O   O6        1.0  0.5575136221900721  0.7128934593783924  0.735543000002508  1.0000
  O   O7        1.0  0.1033353572120177  0.884175935573694  0.48620153958836454  1.0000
  O   O8        1.0  0.38996833527926356  0.7014066276606172  0.9086998195998603  1.0000
  O   O9        1.0  0.8701712496622349  0.30095935307508626  0.07320340827573091  1.0000
  O   O10       1.0  0.618436778873729  0.25012381471606204  0.39597067459180835  1.0000
  O   O11       1.0  0.8210191147409205  0.2760506374615943  0.8543295429772115  1.0000
  O   O12       1.0  0.11473582577309571  0.1326587073272094  0.44844187385751866  1.0000
  O   O13       1.0  0.013163516705390066  0.18691004130232614  0.7431239490542794  1.0000
  O   O14       1.0  0.5367987816716777  0.8447799849091098  0.4292631926073227  1.0000
  O   O15       1.0  0.9608899916493101  0.9821651199599728  0.09515706944512203  1.0000
  O   O16       1.0  0.5361517944111256  0.4430115968134487  0.697972154168383  1.0000
  O   O17       1.0  0.5893245326369652  0.7158969688171055  0.561501768323069  1.0000
  O   O18       1.0  0.9366856358101359  0.46463089718599804  0.3454337930306792  1.0000
  O   O19       1.0  0.07911730604246259  0.07636158544300997  0.037539429795288015  1.0000
  O   O20       1.0  0.5466644291882403  0.05168174084974453  0.5030443872237811  1.0000
  O   O21       1.0  0.9643852714507375  0.061658641847316176  0.7924769694218412  1.0000
  O   O22       1.0  0.8985544753377326  0.33357929303019773  0.08854526153299958  1.0000
  O   O23       1.0  0.956885983589018  0.4838693157507805  0.19477812802870176  1.0000
  O   O24       1.0  0.42777390687842853  0.14769463461561827  0.9911836763640167  1.0000
data_image61
_chemical_formula_structural       O24
_chemical_formula_sum              "O24"
_cell_length_a       6.65259782
_cell_length_b       6.76810209
_cell_length_c       7.45043691
_cell_angle_alpha    90.0
_cell_angle_beta     90.0
_cell_angle_gamma    90.0

_space_group_name_H-M_alt    "P 1"
_space_group_IT_number       1

loop_
  _space_group_symop_operation_xyz
  'x, y, z'

loop_
  _atom_site_type_symbol
  _atom_site_label
  _atom_site_symmetry_multiplicity
  _atom_site_fract_x
  _atom_site_fract_y
  _atom_site_fract_z
  _atom_site_occupancy
  O   O1        1.0  0.8312218185164966  0.5210037684082636  0.8758104321168503  1.0000
  O   O2        1.0  0.5078186601531343  0.565210159344133  0.35653499870340966  1.0000
  O   O3        1.0  0.8680757083930075  0.26717034250032157  0.9687195172300562  1.0000
  O   O4        1.0  0.8014309992558992  0.12055887549217914  0.7565414187720307  1.0000
  O   O5        1.0  0.490150399344202  0.4345473539651721  0.473903571183655  1.0000
  O   O6        1.0  0.44237901276210323  0.9639501966885291  0.42392161928728456  1.0000
  O   O7        1.0  0.39470924889792514  0.564030738310521  0.3352521723609243  1.0000
  O   O8        1.0  0.8781135497265495  0.3483467904734425  0.829968432080932  1.0000
  O   O9        1.0  0.7455276994514861  0.9751982697798667  0.06186679667007411  1.0000
  O   O10       1.0  0.08542040976317367  0.019082900795183377  0.8446074220009905  1.0000
  O   O11       1.0  0.07715178633588948  0.18791641177085694  0.0017067393127945252  1.0000
  O   O12       1.0  0.04872104473270156  0.9475417497451417  0.9915908613911597  1.0000
  O   O13       1.0  0.182006432019989  0.02798365498892963  0.7881428606197005  1.0000
  O   O14       1.0  0.763852327640052  0.2542081881838385  0.38098015630384907  1.0000
  O   O15       1.0  0.1622570808249293  0.6986517033074051  0.48711745731998235  1.0000
  O   O16       1.0  0.49734107161930297  0.603167279601621  0.16745496829753392  1.0000
  O   O17       1.0  0.6447764897347952  0.8091151003318373  0.6643277178300195  1.0000
  O   O18       1.0  0.19421975749719422  0.36452041001757607  0.9401342927012593  1.0000
  O   O19       1.0  0.6320773366969661  0.3867821990243101  0.8677029651371413  1.0000
  O   O20       1.0  0.1054479606100358  0.14755166749819182  0.30691033115726896  1.0000
  O   O21       1.0  0.8766027355450206  0.8825622634030879  0.41474708351597656  1.0000
  O   O22       1.0  0.3007106455042958  0.4487744195284904  0.479298502614256  1.0000
  O   O23       1.0  0.10321199769532541  0.8768032292864518  0.8090367379991221  1.0000
  O   O24       1.0  0.3667758586962009  0.5853223153244471  0.7737229906051653  1.0000
data_image62
_chemical_formula_structural       O24
_chemical_formula_sum              "O24"
_cell_length_a       6.65259782
_cell_length_b       6.76810209
_cell_length_c       7.45043691
_cell_angle_alpha    90.0
_cell_angle_beta     90.0
_cell_angle_gamma    90.0

_space_group_name_H-M_alt    "P 1"
_space_group_IT_number       1

loop_
  _space_group_symop_operation_xyz
  'x, y, z'

loop_
  _atom_site_type_symbol
  _atom_site_label
  _atom_site_symmetry_multiplicity
  _atom_site_fract_x
  _atom_site_fract_y
  _atom_site_fract_z
  _atom_site_occupancy
  O   O1        1.0  0.413317745202221  0.4005530370704946  0.5698247574473498  1.0000
  O   O2        1.0  0.7167910286188999  0.03266305576835293  0.3036858559925122  1.0000
  O   O3        1.0  0.544145600288175  0.8762368765892461  0.05663459736388177  1.0000
  O   O4        1.0  0.4606113771460514  0.9592631173751442  0.6433818727473408  1.0000
  O   O5        1.0  0.5845904220586817  0.7425513932503236  0.7595182167519852  1.0000
  O   O6        1.0  0.6742055526192416  0.44917775767680723  0.19892961738514714  1.0000
  O   O7        1.0  0.9058130954945227  0.11695717816724027  0.5202354002576612  1.0000
  O   O8        1.0  0.7807647741428809  0.6814634620386641  0.04767810329212807  1.0000
  O   O9        1.0  0.37345298429136164  0.9205511252439464  0.03236498610203853  1.0000
  O   O10       1.0  0.4796461823716527  0.8809218568057986  0.35317212275913334  1.0000
  O   O11       1.0  0.5921243458979006  0.03096475412530708  0.7675967822724488  1.0000
  O   O12       1.0  0.14070588912363746  0.028430868573195767  0.924577166850213  1.0000
  O   O13       1.0  0.29258526836929377  0.07769115136761684  0.29442390719486866  1.0000
  O   O14       1.0  0.45970600422879215  0.054284595855278894  0.9524401350499829  1.0000
  O   O15       1.0  0.8268996879851329  0.20716925337910652  0.21749797341180965  1.0000
  O   O16       1.0  0.3766545806065551  0.05283412177595892  0.2502498275716789  1.0000
  O   O17       1.0  0.9537789737914864  0.192840620802599  0.8634955749366782  1.0000
  O   O18       1.0  0.9268789923153236  0.1402578821289353  0.6011909560766071  1.0000
  O   O19       1.0  0.7364659380618832  0.09448307843103976  0.1444757763238158  1.0000
  O   O20       1.0  0.1929472370829899  0.8339101807796396  0.4767507088399725  1.0000
  O   O21       1.0  0.6584011628729058  0.8033742968691513  0.16747696467064088  1.0000
  O   O22       1.0  0.22881980330566876  0.15405590874433983  0.4295626173261553  1.0000
  O   O23       1.0  0.5263971539861814  0.8286039180165972  0.345147929228915  1.0000
  O   O24       1.0  0.15429622936062515  0.4407604964872007  0.07968818359950092  1.0000
data_image63
_chemical_formula_structural       O24
_chemical_formula_sum              "O24"
_cell_length_a       6.65259782
_cell_length_b       6.76810209
_cell_length_c       7.45043691
_cell_angle_alpha    90.0
_cell_angle_beta     90.0
_cell_angle_gamma    90.0

_space_group_name_H-M_alt    "P 1"
_space_group_IT_number       1

loop_
  _space_group_symop_operation_xyz
  'x, y, z'

loop_
  _atom_site_type_symbol
  _atom_site_label
  _atom_site_symmetry_multiplicity
  _atom_site_fract_x
  _atom_site_fract_y
  _atom_site_fract_z
  _atom_site_occupancy
  O   O1        1.0  0.8062465513357893  0.5990126761171268  0.2618884593684925  1.0000
  O   O2        1.0  0.6270691177851404  0.7661727302183863  0.1972073224515043  1.0000
  O   O3        1.0  0.18988368997815996  0.4064861914375797  0.5869395656045526  1.0000
  O   O4        1.0  0.2627711536697461  0.31057466456513794  0.8732581517833751  1.0000
  O   O5        1.0  0.5914860038501502  0.2961297891270078  0.9277542484227297  1.0000
  O   O6        1.0  0.23383241156625445  0.04027118869998958  0.89359990794037  1.0000
  O   O7        1.0  0.8060315640941553  0.3392947744932826  0.6274657327812747  1.0000
  O   O8        1.0  0.9998409518011613  0.7976436837634537  0.5780591774673667  1.0000
  O   O9        1.0  0.17813043542264495  0.8586257429487887  0.6998480084512266  1.0000
  O   O10       1.0  0.5838695093043498  0.6154183321232267  0.9401887121966865  1.0000
  O   O11       1.0  0.09369860278457054  0.8731240732413426  0.40095200665382436  1.0000
  O   O12       1.0  0.9440711292736523  0.4652545907374588  0.8475680125993676  1.0000
  O   O13       1.0  0.7638794207741739  0.33492944766476285  0.06682542090129573  1.0000
  O   O14       1.0  0.06241094852157403  0.4003361670766026  0.1004237866436597  1.0000
  O   O15       1.0  0.0343575732113095  0.7345744741614908  0.8477174467989244  1.0000
  O   O16       1.0  0.6118807847233256  0.6357701350934803  0.8846784612469492  1.0000
  O   O17       1.0  0.30318812612676993  0.4939714424981503  0.5529836359492037  1.0000
  O   O18       1.0  0.4435831115479232  0.5907634868635796  0.9794688047841191  1.0000
  O   O19       1.0  0.20385639686719514  0.7359287556992058  0.09578078009508317  1.0000
  O   O20       1.0  0.7731178311514668  0.5187923382909503  0.8755117422915646  1.0000
  O   O21       1.0  0.9368419169331901  0.551729979342781  0.8012257580121513  1.0000
  O   O22       1.0  0.5186339368228801  0.19237153170251986  0.029103785927873105  1.0000
  O   O23       1.0  0.8199704448707053  0.5900431919144467  0.6509428810768441  1.0000
  O   O24       1.0  0.21134841270395555  0.8527806126803625  0.28060821889084764  1.0000
data_image64
_chemical_formula_structural       O24
_chemical_formula_sum              "O24"
_cell_length_a       6.65259782
_cell_length_b       6.76810209
_cell_length_c       7.45043691
_cell_angle_alpha    90.0
_cell_angle_beta     90.0
_cell_angle_gamma    90.0

_space_group_name_H-M_alt    "P 1"
_space_group_IT_number       1

loop_
  _space_group_symop_operation_xyz
  'x, y, z'

loop_
  _atom_site_type_symbol
  _atom_site_label
  _atom_site_symmetry_multiplicity
  _atom_site_fract_x
  _atom_site_fract_y
  _atom_site_fract_z
  _atom_site_occupancy
  O   O1        1.0  0.3783200818579644  0.78555320732994  0.5894448256585747  1.0000
  O   O2        1.0  0.29819977858278435  0.8893407737268717  0.28668182579895074  1.0000
  O   O3        1.0  0.31513287813868374  0.7168292254209518  0.20001767191570252  1.0000
  O   O4        1.0  0.30427187467284966  0.7721217843518389  0.6259299811099481  1.0000
  O   O5        1.0  0.35397444962291047  0.7398848005432228  0.6277980670897705  1.0000
  O   O6        1.0  0.9200034127898107  0.5515627747081453  0.25368212429020787  1.0000
  O   O7        1.0  0.40619975783010887  0.40708060950964864  0.685625019523286  1.0000
  O   O8        1.0  0.9183661131246481  0.18291367634083144  0.35059586382703856  1.0000
  O   O9        1.0  0.23202137087355368  0.5636163572708028  0.3128860065844492  1.0000
  O   O10       1.0  0.6828821107374097  0.217942653081991  0.12304849822612596  1.0000
  O   O11       1.0  0.5392584127803275  0.7467758449711255  0.6814546383975539  1.0000
  O   O12       1.0  0.43866478870768333  0.08539868194202427  0.894121793215163  1.0000
  O   O13       1.0  0.8019692609668709  0.3546438006742392  0.919294551218627  1.0000
  O   O14       1.0  0.5186558872665046  0.17075990844750777  0.5279331421334064  1.0000
  O   O15       1.0  0.20954099859591224  0.4239128512563184  0.8062706142663956  1.0000
  O   O16       1.0  0.27323650669131894  0.6625991961645923  0.5530769483611948  1.0000
  O   O17       1.0  0.8466590602693032  0.8991017183725489  0.1294544659249368  1.0000
  O   O18       1.0  0.03701134385482874  0.3896309093106538  0.23825388954719529  1.0000
  O   O19       1.0  0.5934471780710737  0.2478321910680279  0.8133766873506829  1.0000
  O   O20       1.0  0.3946841675497126  0.16486646558041684  0.33475181007088395  1.0000
  O   O21       1.0  0.6393336419423576  0.02228836336871609  0.638702310177905  1.0000
  O   O22       1.0  0.11016009215381928  0.3834359300235519  0.12545525038149208  1.0000
  O   O23       1.0  0.9864882525944267  0.10513442354567815  0.690923314255997  1.0000
  O   O24       1.0  0.8015185939730145  0.5167738488526084  0.5912207123619737  1.0000
data_image65
_chemical_formula_structural       O24
_chemical_formula_sum              "O24"
_cell_length_a       6.65259782
_cell_length_b       6.76810209
_cell_length_c       7.45043691
_cell_angle_alpha    90.0
_cell_angle_beta     90.0
_cell_angle_gamma    90.0

_space_group_name_H-M_alt    "P 1"
_space_group_IT_number       1

loop_
  _space_group_symop_operation_xyz
  'x, y, z'

loop_
  _atom_site_type_symbol
  _atom_site_label
  _atom_site_symmetry_multiplicity
  _atom_site_fract_x
  _atom_site_fract_y
  _atom_site_fract_z
  _atom_site_occupancy
  O   O1        1.0  0.6132191686483566  0.7574409232911421  0.41997293030726723  1.0000
  O   O2        1.0  0.24269689376524184  0.1024125972908223  0.016645348639940494  1.0000
  O   O3        1.0  0.9406840386800468  0.5712050201836973  0.4248513091588393  1.0000
  O   O4        1.0  0.08811191393033369  0.745016026770827  0.12426634404982906  1.0000
  O   O5        1.0  0.28351639915490523  0.9069550725434965  0.3184211617908659  1.0000
  O   O6        1.0  0.5435258877914748  0.05595807028294075  0.998189424208249  1.0000
  O   O7        1.0  0.14945311888004653  0.7108390196408436  0.8307545891220798  1.0000
  O   O8        1.0  0.03515113522007596  0.23992582084611058  0.19237129158864263  1.0000
  O   O9        1.0  0.6886810981013696  0.36670911975488707  0.01437946470832685  1.0000
  O   O10       1.0  0.3977717177258455  0.0938893637394358  0.2666389459918719  1.0000
  O   O11       1.0  0.7027744498955144  0.04934230854632915  0.8907088725827634  1.0000
  O   O12       1.0  0.013427079924440477  0.0064366010192316025  0.7819180488731945  1.0000
  O   O13       1.0  0.10711221637029666  0.7278258658188861  0.22185386903584003  1.0000
  O   O14       1.0  0.09372275703935884  0.6951884939044248  0.7026897118194029  1.0000
  O   O15       1.0  0.5689629875678293  0.013942775898613036  0.37161139375530183  1.0000
  O   O16       1.0  0.24618816662405152  0.16873866887362965  0.347286799235917  1.0000
  O   O17       1.0  0.5626082561866497  0.8191496553627076  0.4670830571994884  1.0000
  O   O18       1.0  0.6387013382191071  0.0870323435519822  0.848144376242999  1.0000
  O   O19       1.0  0.20062523802334908  0.9150864568332508  0.839311755473318  1.0000
  O   O20       1.0  0.3899762793444097  0.7872105290589388  0.8668864787905477  1.0000
  O   O21       1.0  0.3287578040617518  0.20007603240082972  0.2666224335844163  1.0000
  O   O22       1.0  0.736075566324871  0.7110550065262942  0.42087060859194025  1.0000
  O   O23       1.0  0.4022272615984548  0.6535673535254318  0.7288047544425353  1.0000
  O   O24       1.0  0.026029238768387586  0.614996876422083  0.6397170134005137  1.0000
data_image66
_chemical_formula_structural       O24
_chemical_formula_sum              "O24"
_cell_length_a       6.65259782
_cell_length_b       6.76810209
_cell_length_c       7.45043691
_cell_angle_alpha    90.0
_cell_angle_beta     90.0
_cell_angle_gamma    90.0

_space_group_name_H-M_alt    "P 1"
_space_group_IT_number       1

loop_
  _space_group_symop_operation_xyz
  'x, y, z'

loop_
  _atom_site_type_symbol
  _atom_site_label
  _atom_site_symmetry_multiplicity
  _atom_site_fract_x
  _atom_site_fract_y
  _atom_site_fract_z
  _atom_site_occupancy
  O   O1        1.0  0.05366767695522867  0.8468609682822716  0.36563899778411724  1.0000
  O   O2        1.0  0.4235816502041416  0.5508275584870717  0.6916029223830265  1.0000
  O   O3        1.0  0.7711202348582447  0.19150812469888479  0.9164230406749994  1.0000
  O   O4        1.0  0.5673688115675759  0.03465488843721687  0.705581996779074  1.0000
  O   O5        1.0  0.29781998297039536  0.4830981514205632  0.9357419973221113  1.0000
  O   O6        1.0  0.15263068298372673  0.15364662725187372  0.9573229285233538  1.0000
  O   O7        1.0  0.5174383685925932  0.3729053037968697  0.003236060591007117  1.0000
  O   O8        1.0  0.3966562442656141  0.606751668266952  0.011930634340387769  1.0000
  O   O9        1.0  0.22965704637317685  0.6413964764087723  0.3485047324284096  1.0000
  O   O10       1.0  0.8934242536197416  0.178851406522881  0.8038041937525122  1.0000
  O   O11       1.0  0.9992874570198182  0.4234715239945217  0.8957517336020828  1.0000
  O   O12       1.0  0.552551111610228  0.006717660289723426  0.42584363139030756  1.0000
  O   O13       1.0  0.9392637218479649  0.14160046723554842  0.9902283637784421  1.0000
  O   O14       1.0  0.6775614537182264  0.34387389523908496  0.3631676716468064  1.0000
  O   O15       1.0  0.2984842344339995  0.10366224113386124  0.04058727255323902  1.0000
  O   O16       1.0  0.507665249719139  0.5540888359109886  0.09435856146109245  1.0000
  O   O17       1.0  0.6754661886152462  0.317292220206582  0.6082353040619637  1.0000
  O   O18       1.0  0.0907972262284602  0.9479548899980728  0.5139746035565622  1.0000
  O   O19       1.0  0.8068783627531957  0.4102430519142217  0.9918957413610769  1.0000
  O   O20       1.0  0.09742745303083211  0.26563403217005543  0.023797166533768177  1.0000
  O   O21       1.0  0.9168280130252242  0.692432890937198  0.502192499472585  1.0000
  O   O22       1.0  0.20234882459044456  0.2957615571212955  0.24369297124212608  1.0000
  O   O23       1.0  0.816674812113888  0.6959209400520194  0.19579787548536842  1.0000
  O   O24       1.0  0.11540095666714478  0.7408446064364398  0.3706890642060898  1.0000
data_image67
_chemical_formula_structural       O24
_chemical_formula_sum              "O24"
_cell_length_a       6.65259782
_cell_length_b       6.76810209
_cell_length_c       7.45043691
_cell_angle_alpha    90.0
_cell_angle_beta     90.0
_cell_angle_gamma    90.0

_space_group_name_H-M_alt    "P 1"
_space_group_IT_number       1

loop_
  _space_group_symop_operation_xyz
  'x, y, z'

loop_
  _atom_site_type_symbol
  _atom_site_label
  _atom_site_symmetry_multiplicity
  _atom_site_fract_x
  _atom_site_fract_y
  _atom_site_fract_z
  _atom_site_occupancy
  O   O1        1.0  0.7352395918424008  0.3030534740901203  0.6723618185642408  1.0000
  O   O2        1.0  0.16160808216955047  0.8623145263118204  0.2202919466781168  1.0000
  O   O3        1.0  0.7653158407192677  0.5903900009579957  0.49896381178405136  1.0000
  O   O4        1.0  0.5688345662201755  0.06442027949378826  0.6757844528765418  1.0000
  O   O5        1.0  0.5166659890928713  0.5245807177161623  0.8056944839127027  1.0000
  O   O6        1.0  0.5304706741044356  0.44214514654595405  0.419148482644232  1.0000
  O   O7        1.0  0.703510440575883  0.6880765547139163  0.11035736455232836  1.0000
  O   O8        1.0  0.28055937387398444  0.5538868075527716  0.5194222321297275  1.0000
  O   O9        1.0  0.9666375884335139  0.7064611468813382  0.9128706390256411  1.0000
  O   O10       1.0  0.7817544811405241  0.9556245971148201  0.4673845503348275  1.0000
  O   O11       1.0  0.2996001733736193  0.8407880114864383  0.6340444722372922  1.0000
  O   O12       1.0  0.9802013750231708  0.32677892923311447  0.10642121456476161  1.0000
  O   O13       1.0  0.28216964980310877  0.14647275417519268  0.31704650714527816  1.0000
  O   O14       1.0  0.4791893762157997  0.4877899572602473  0.9090899005823303  1.0000
  O   O15       1.0  0.37896316737896996  0.44670412316918373  0.8984064877149649  1.0000
  O   O16       1.0  0.31353761930949986  0.8775269750003645  0.4498377467748469  1.0000
  O   O17       1.0  0.7314659530384233  0.23745453347510193  0.9892386082719895  1.0000
  O   O18       1.0  0.7512397003229125  0.858864401903702  0.31961965427035466  1.0000
  O   O19       1.0  0.33091549044911517  0.8598383866419681  0.940468391207105  1.0000
  O   O20       1.0  0.3201359827944543  0.13855053586303256  0.8670577495795442  1.0000
  O   O21       1.0  0.3666183565655956  0.3826454234949779  0.25634906999766827  1.0000
  O   O22       1.0  0.854101545875892  0.515433877997566  0.9154074882389978  1.0000
  O   O23       1.0  0.47974796662674635  0.8523187129758298  0.32388072897265374  1.0000
  O   O24       1.0  0.4215170312090777  0.33788013059529476  0.7708521551830927  1.0000
data_image68
_chemical_formula_structural       O24
_chemical_formula_sum              "O24"
_cell_length_a       6.65259782
_cell_length_b       6.76810209
_cell_length_c       7.45043691
_cell_angle_alpha    90.0
_cell_angle_beta     90.0
_cell_angle_gamma    90.0

_space_group_name_H-M_alt    "P 1"
_space_group_IT_number       1

loop_
  _space_group_symop_operation_xyz
  'x, y, z'

loop_
  _atom_site_type_symbol
  _atom_site_label
  _atom_site_symmetry_multiplicity
  _atom_site_fract_x
  _atom_site_fract_y
  _atom_site_fract_z
  _atom_site_occupancy
  O   O1        1.0  0.949755401146831  0.7943472578699584  0.19429843687976245  1.0000
  O   O2        1.0  0.23820526733470615  0.725363554811338  0.3469530254988058  1.0000
  O   O3        1.0  0.2960763705195859  0.5834910843987018  0.6757794228615239  1.0000
  O   O4        1.0  0.7643074081570376  0.019623053456598427  0.9239274715328065  1.0000
  O   O5        1.0  0.691517605115223  0.5181020860036369  0.3940606902087893  1.0000
  O   O6        1.0  0.12515526188508375  0.9561105676402804  0.6074450272571994  1.0000
  O   O7        1.0  0.31672919680067935  0.392812186507399  0.6140979535775841  1.0000
  O   O8        1.0  0.9988325134036131  0.507876121380832  0.8320363459497457  1.0000
  O   O9        1.0  0.42125832702731714  0.285423976562015  0.15566706709068967  1.0000
  O   O10       1.0  0.13268185471679317  0.25426870270166546  0.47733480215356394  1.0000
  O   O11       1.0  0.9978530543576198  0.4982861958851572  0.6333964585792273  1.0000
  O   O12       1.0  0.3142930120229721  0.05233543866779655  0.982773101713974  1.0000
  O   O13       1.0  0.43539970785423066  0.40773638401879  0.214477107336279  1.0000
  O   O14       1.0  0.7643842400430003  0.8596717880864162  0.25517729234707076  1.0000
  O   O15       1.0  0.4069429517840035  0.3721836665645242  0.46600516652688384  1.0000
  O   O16       1.0  0.12907528528012335  0.04847459277516464  0.019482860749121755  1.0000
  O   O17       1.0  0.4848596388255828  0.9741404340602458  0.47620984231616603  1.0000
  O   O18       1.0  0.7139808368374361  0.5899231543589849  0.40636239311425015  1.0000
  O   O19       1.0  0.029849010912585072  0.4314507450108067  0.41682571962155635  1.0000
  O   O20       1.0  0.7441488334734458  0.14746374686365016  0.9134568925219355  1.0000
  O   O21       1.0  0.2545692137500737  0.7367937735107262  0.7256076761841541  1.0000
  O   O22       1.0  0.18876042880583555  0.8451677318371367  0.8846824880456552  1.0000
  O   O23       1.0  0.6747564246907132  0.5321618569064412  0.514622910248363  1.0000
  O   O24       1.0  0.9266081573005067  0.466791912127519  0.8693198000255506  1.0000
data_image69
_chemical_formula_structural       O24
_chemical_formula_sum              "O24"
_cell_length_a       6.65259782
_cell_length_b       6.76810209
_cell_length_c       7.45043691
_cell_angle_alpha    90.0
_cell_angle_beta     90.0
_cell_angle_gamma    90.0

_space_group_name_H-M_alt    "P 1"
_space_group_IT_number       1

loop_
  _space_group_symop_operation_xyz
  'x, y, z'

loop_
  _atom_site_type_symbol
  _atom_site_label
  _atom_site_symmetry_multiplicity
  _atom_site_fract_x
  _atom_site_fract_y
  _atom_site_fract_z
  _atom_site_occupancy
  O   O1        1.0  0.9672702581883641  0.034073747741786065  0.7571285216836259  1.0000
  O   O2        1.0  0.8700477357051568  0.640427823716891  0.2972283495910233  1.0000
  O   O3        1.0  0.8837284544715658  0.3921473886584863  0.6120933174388483  1.0000
  O   O4        1.0  0.8584275870944111  0.11385336674720747  0.461240187225485  1.0000
  O   O5        1.0  0.07989088683825685  0.014141387422569096  0.9195788153410831  1.0000
  O   O6        1.0  0.4526149278935918  0.2773381982551655  0.5536691603556392  1.0000
  O   O7        1.0  0.60766697726649  0.7075966608026647  0.6019986862520454  1.0000
  O   O8        1.0  0.37367751287820283  0.11815513641340658  0.763690953317564  1.0000
  O   O9        1.0  0.7910254732341855  0.7137448311041226  0.3311335842954577  1.0000
  O   O10       1.0  0.8368142742092459  0.1543651330866851  0.6242736108542886  1.0000
  O   O11       1.0  0.4947451063212611  0.036422369892534334  0.6058097391796764  1.0000
  O   O12       1.0  0.011898380354978144  0.21497585950419307  0.40055221726652235  1.0000
  O   O13       1.0  0.6611099474175717  0.4664071908482583  0.41829622760997154  1.0000
  O   O14       1.0  0.12194747065950651  0.47107152052922174  0.4310665224620607  1.0000
  O   O15       1.0  0.6172871420276351  0.6577085168100893  0.6021811061073095  1.0000
  O   O16       1.0  0.4899645862169564  0.7077397928806022  0.5859224332962185  1.0000
  O   O17       1.0  0.4933948962825525  0.35351549070037436  0.3227226046510623  1.0000
  O   O18       1.0  0.44974152164104453  0.3158343469258398  0.28336628433316946  1.0000
  O   O19       1.0  0.301494732091669  0.3414916385208926  0.9543452043653815  1.0000
  O   O20       1.0  0.5226561331073754  0.21496401878539473  0.31932804312964436  1.0000
  O   O21       1.0  0.08368899230845273  0.14614658372011036  0.9386156426116941  1.0000
  O   O22       1.0  0.42085518268868327  0.17763218347681686  0.012040212284773588  1.0000
  O   O23       1.0  0.5615367229256663  0.4864565681904338  0.7844329005929467  1.0000
  O   O24       1.0  0.048515108283027075  0.24379026495444123  0.41928562785324175  1.0000
data_image70
_chemical_formula_structural       O24
_chemical_formula_sum              "O24"
_cell_length_a       6.65259782
_cell_length_b       6.76810209
_cell_length_c       7.45043691
_cell_angle_alpha    90.0
_cell_angle_beta     90.0
_cell_angle_gamma    90.0

_space_group_name_H-M_alt    "P 1"
_space_group_IT_number       1

loop_
  _space_group_symop_operation_xyz
  'x, y, z'

loop_
  _atom_site_type_symbol
  _atom_site_label
  _atom_site_symmetry_multiplicity
  _atom_site_fract_x
  _atom_site_fract_y
  _atom_site_fract_z
  _atom_site_occupancy
  O   O1        1.0  0.738045106336358  0.7232577001050231  0.7443001875362825  1.0000
  O   O2        1.0  0.12819362967275083  0.017745772434864193  0.7991020740228123  1.0000
  O   O3        1.0  0.8536848492221907  0.26841996563598514  0.324890173971653  1.0000
  O   O4        1.0  0.9143091608111718  0.31348455172701506  0.693098413565167  1.0000
  O   O5        1.0  0.2744830576084496  0.8998125496182183  0.9670131511120417  1.0000
  O   O6        1.0  0.30308358944239444  0.9388225880247774  0.1985203628646559  1.0000
  O   O7        1.0  0.18471404370029632  0.7496121090516681  0.6651902601442998  1.0000
  O   O8        1.0  0.020570044231135398  0.5591974552662577  0.45104308288136963  1.0000
  O   O9        1.0  0.4455033828271553  0.9860251065038028  0.2299859596605529  1.0000
  O   O10       1.0  0.8909179245820269  0.3041012145404238  0.5088579640432727  1.0000
  O   O11       1.0  0.7133104048261885  0.34760199903394096  0.3636494585662149  1.0000
  O   O12       1.0  0.025597331346943974  0.4835820132866502  0.8057656747987494  1.0000
  O   O13       1.0  0.8810548901165021  0.9831096170819364  0.011307660257443786  1.0000
  O   O14       1.0  0.4428215039661154  0.8046840944152791  0.0696813449030742  1.0000
  O   O15       1.0  0.2774361349293031  0.5320178605616093  0.6056548007763922  1.0000
  O   O16       1.0  0.7422365916427225  0.277379305800423  0.3604819537140429  1.0000
  O   O17       1.0  0.9881145220242615  0.10444948694203049  0.44825970543024596  1.0000
  O   O18       1.0  0.8291569842131139  0.17442400474101305  0.6779773575835861  1.0000
  O   O19       1.0  0.685739370797819  0.5976623007736634  0.18547762783418875  1.0000
  O   O20       1.0  0.5803635907068383  0.8636668133549392  0.8672202046436723  1.0000
  O   O21       1.0  0.22176314327225555  0.5435774401412345  0.7741599668224808  1.0000
  O   O22       1.0  0.5805080314166844  0.14505759510211647  0.464407317340374  1.0000
  O   O23       1.0  0.14099297131906496  0.3869368071506756  0.22511486099028843  1.0000
  O   O24       1.0  0.13739977276418358  0.9953716253512539  0.5588403884321451  1.0000
data_image71
_chemical_formula_structural       O24
_chemical_formula_sum              "O24"
_cell_length_a       6.65259782
_cell_length_b       6.76810209
_cell_length_c       7.45043691
_cell_angle_alpha    90.0
_cell_angle_beta     90.0
_cell_angle_gamma    90.0

_space_group_name_H-M_alt    "P 1"
_space_group_IT_number       1

loop_
  _space_group_symop_operation_xyz
  'x, y, z'

loop_
  _atom_site_type_symbol
  _atom_site_label
  _atom_site_symmetry_multiplicity
  _atom_site_fract_x
  _atom_site_fract_y
  _atom_site_fract_z
  _atom_site_occupancy
  O   O1        1.0  0.46674554140190594  0.37452735384431435  0.2966046598448884  1.0000
  O   O2        1.0  0.44612395399599336  0.23618175857700408  0.048161943508603144  1.0000
  O   O3        1.0  0.7695103434380144  0.6587691509630531  0.16810277639888227  1.0000
  O   O4        1.0  0.903249763256099  0.8175750678929035  0.622266552039946  1.0000
  O   O5        1.0  0.4186270538302779  0.20247430025483482  0.6980020153459918  1.0000
  O   O6        1.0  0.4072947759232193  0.019423446399741806  0.9426729868027905  1.0000
  O   O7        1.0  0.7524662544237799  0.06705253375548637  0.7039089216777938  1.0000
  O   O8        1.0  0.9400917244784068  0.011679607181577012  0.6960462633433053  1.0000
  O   O9        1.0  0.2509659581191954  0.746488657878217  0.6676867515197955  1.0000
  O   O10       1.0  0.7327213318276335  0.9970367334317416  0.08897637386689894  1.0000
  O   O11       1.0  0.4963035107648466  0.6615958051406778  0.9652146887819981  1.0000
  O   O12       1.0  0.7040683755185455  0.4574446687474847  0.18622837855946273  1.0000
  O   O13       1.0  0.7428382810539915  0.8536865964124445  0.16075030632782727  1.0000
  O   O14       1.0  0.5421011832077056  0.21504287378047593  0.7603222435282078  1.0000
  O   O15       1.0  0.45069711573887616  0.40247482247650623  0.35726505471393466  1.0000
  O   O16       1.0  0.355773783987388  0.1379266813164577  0.1750607551075518  1.0000
  O   O17       1.0  0.3087038286248571  0.34781165508320555  0.27573266706895083  1.0000
  O   O18       1.0  0.13263835355610354  0.6017871534277219  0.15831509773852304  1.0000
  O   O19       1.0  0.45635829931416083  0.9956607320782496  0.8717244976360234  1.0000
  O   O20       1.0  0.3811201894422993  0.8107872045657132  0.1630203052482102  1.0000
  O   O21       1.0  0.9862449978245422  0.45766166446264833  0.3163894359822734  1.0000
  O   O22       1.0  0.3171937973238528  0.2663400177843869  0.6508026137016714  1.0000
  O   O23       1.0  0.3890538883715635  0.3292625475241948  0.5667317205225118  1.0000
  O   O24       1.0  0.6491077639948344  0.3313089355797274  0.4600129655736964  1.0000
data_image72
_chemical_formula_structural       O24
_chemical_formula_sum              "O24"
_cell_length_a       6.65259782
_cell_length_b       6.76810209
_cell_length_c       7.45043691
_cell_angle_alpha    90.0
_cell_angle_beta     90.0
_cell_angle_gamma    90.0

_space_group_name_H-M_alt    "P 1"
_space_group_IT_number       1

loop_
  _space_group_symop_operation_xyz
  'x, y, z'

loop_
  _atom_site_type_symbol
  _atom_site_label
  _atom_site_symmetry_multiplicity
  _atom_site_fract_x
  _atom_site_fract_y
  _atom_site_fract_z
  _atom_site_occupancy
  O   O1        1.0  0.4283449889480835  0.5205529918530374  0.21437934692949057  1.0000
  O   O2        1.0  0.8822341037157457  0.3339246165196528  0.40054416810016846  1.0000
  O   O3        1.0  0.9863898422336206  0.04264404787681997  0.01720643532462418  1.0000
  O   O4        1.0  0.2753309852896564  0.680313624739938  0.39757129997451557  1.0000
  O   O5        1.0  0.3739394099684432  0.4937517284306523  0.7488167628180236  1.0000
  O   O6        1.0  0.2543189354169044  0.12237915566947777  0.6801916407130193  1.0000
  O   O7        1.0  0.13209081435070402  0.07470984882093035  0.8644467554604489  1.0000
  O   O8        1.0  0.6593623150110943  0.7854625948239118  0.9133115007425658  1.0000
  O   O9        1.0  0.6674867525871377  0.26951565569470404  0.9848664675810141  1.0000
  O   O10       1.0  0.4585902622930007  0.6297143456467893  0.1677563879347872  1.0000
  O   O11       1.0  0.26967030388186686  0.12307024170877412  0.7186781137279468  1.0000
  O   O12       1.0  0.9993001477560028  0.1019039754755795  0.8579209191957489  1.0000
  O   O13       1.0  0.26153057035116944  0.14805116538627772  0.6724945544556249  1.0000
  O   O14       1.0  0.8908588931080885  0.7007456852879841  0.7841255368693965  1.0000
  O   O15       1.0  0.8221206782036461  0.7310391394421458  0.7962253184523433  1.0000
  O   O16       1.0  0.8140371574554592  0.2171343594091013  0.5920825095381588  1.0000
  O   O17       1.0  0.7503874088652083  0.5934191962587647  0.9173186015068495  1.0000
  O   O18       1.0  0.14191160982954898  0.6206725034862757  0.3404321292764507  1.0000
  O   O19       1.0  0.20479256591352168  0.21654003703406488  0.26727137347188545  1.0000
  O   O20       1.0  0.6161590491246898  0.45925487819476984  0.887597628228832  1.0000
  O   O21       1.0  0.5351568381302059  0.8809446515224408  0.06811627034039702  1.0000
  O   O22       1.0  0.3894645110704005  0.732456851284951  0.9430844564922154  1.0000
  O   O23       1.0  0.40700396230386104  0.9394537665957614  0.527057833631261  1.0000
  O   O24       1.0  0.779518002687837  0.5823449231538689  0.23850396150373854  1.0000
data_image73
_chemical_formula_structural       O24
_chemical_formula_sum              "O24"
_cell_length_a       6.65259782
_cell_length_b       6.76810209
_cell_length_c       7.45043691
_cell_angle_alpha    90.0
_cell_angle_beta     90.0
_cell_angle_gamma    90.0

_space_group_name_H-M_alt    "P 1"
_space_group_IT_number       1

loop_
  _space_group_symop_operation_xyz
  'x, y, z'

loop_
  _atom_site_type_symbol
  _atom_site_label
  _atom_site_symmetry_multiplicity
  _atom_site_fract_x
  _atom_site_fract_y
  _atom_site_fract_z
  _atom_site_occupancy
  O   O1        1.0  0.05764116515638307  0.42585686709935544  0.2018342279479839  1.0000
  O   O2        1.0  0.17015266514499672  0.06686672455543885  0.9622861962998286  1.0000
  O   O3        1.0  0.7426640134071931  0.08943249809090048  0.3121595474658534  1.0000
  O   O4        1.0  0.25951923074535443  0.3660792688897345  0.5864978233480542  1.0000
  O   O5        1.0  0.6167458309028007  0.9622750849230215  0.7482249782697181  1.0000
  O   O6        1.0  0.5603386692237109  0.11655470484402031  0.932014201534912  1.0000
  O   O7        1.0  0.9877015189413214  0.1576696718693711  0.010251575578877237  1.0000
  O   O8        1.0  0.4727298390789656  0.8227931778819766  0.7672189427394187  1.0000
  O   O9        1.0  0.5236270335226436  0.6704148754506605  0.9510479282034794  1.0000
  O   O10       1.0  0.4994944488571491  0.05835187787306495  0.7790633567492478  1.0000
  O   O11       1.0  0.9617114733264316  0.3332888920285768  0.1390402455581352  1.0000
  O   O12       1.0  0.2805702715413645  0.04874048032797873  0.31580372736789286  1.0000
  O   O13       1.0  0.8623603686573915  0.44385238242102787  0.445952448179014  1.0000
  O   O14       1.0  0.7874757546669571  0.18053022111416794  0.13568541467247996  1.0000
  O   O15       1.0  0.10599238582653925  0.09731114818714559  0.15131682553328574  1.0000
  O   O16       1.0  0.8226933465339243  0.8577782654901966  0.3052694541402161  1.0000
  O   O17       1.0  0.2120918540895218  0.3876000626478344  0.8332655207632342  1.0000
  O   O18       1.0  0.8623190458856698  0.3425399508269038  0.8084197014104575  1.0000
  O   O19       1.0  0.02913870188058354  0.0786225565825589  0.05099033840087941  1.0000
  O   O20       1.0  0.007696581044001505  0.3552090791927185  0.209704601104022  1.0000
  O   O21       1.0  0.5748478435270954  0.48071213194634765  0.7697318797872867  1.0000
  O   O22       1.0  0.9445787933655083  0.8377972862217575  0.3410536842420697  1.0000
  O   O23       1.0  0.9511483219321235  0.9009092692904233  0.7098326760169584  1.0000
  O   O24       1.0  0.7067609795485623  0.9188135408767266  0.5333346822299063  1.0000
data_image74
_chemical_formula_structural       O24
_chemical_formula_sum              "O24"
_cell_length_a       6.65259782
_cell_length_b       6.76810209
_cell_length_c       7.45043691
_cell_angle_alpha    90.0
_cell_angle_beta     90.0
_cell_angle_gamma    90.0

_space_group_name_H-M_alt    "P 1"
_space_group_IT_number       1

loop_
  _space_group_symop_operation_xyz
  'x, y, z'

loop_
  _atom_site_type_symbol
  _atom_site_label
  _atom_site_symmetry_multiplicity
  _atom_site_fract_x
  _atom_site_fract_y
  _atom_site_fract_z
  _atom_site_occupancy
  O   O1        1.0  0.4867230372619815  0.3146764558405266  0.32268353953259066  1.0000
  O   O2        1.0  0.02689597284188494  0.7963421032618498  0.47329309121414553  1.0000
  O   O3        1.0  0.7119380744406953  0.4423630883684382  0.2311119759688154  1.0000
  O   O4        1.0  0.3382238978520036  0.38211304999276763  0.8722032071136709  1.0000
  O   O5        1.0  0.21380122989285155  0.8191368242696626  0.49915563336980995  1.0000
  O   O6        1.0  0.9295872792135924  0.6534240732435137  0.47710674349218607  1.0000
  O   O7        1.0  0.9570611870367429  0.8220800919225439  0.10389842135919025  1.0000
  O   O8        1.0  0.5758036516490392  0.20258353810640983  0.6192158604244469  1.0000
  O   O9        1.0  0.012524389196187258  0.9694672987243393  0.4001170293195173  1.0000
  O   O10       1.0  0.7126378765242407  0.825872782850638  0.3717826769279782  1.0000
  O   O11       1.0  0.6848096730536781  0.890041920603835  0.3023221940966323  1.0000
  O   O12       1.0  0.03850041434634477  0.18422401370480657  0.5986701374640688  1.0000
  O   O13       1.0  0.23690251987136435  0.9123596450081095  0.5426922431215644  1.0000
  O   O14       1.0  0.725990291844937  0.7438227524980903  0.5826062926207669  1.0000
  O   O15       1.0  0.27727200294611976  0.19501265906728804  0.3208340483251959  1.0000
  O   O16       1.0  0.16599963861517608  0.2417474112007767  0.4808764869812876  1.0000
  O   O17       1.0  0.45113769796444103  0.26247439347207546  0.6210450930593652  1.0000
  O   O18       1.0  0.6124091858482643  0.541001844627317  0.9578463267534971  1.0000
  O   O19       1.0  0.4895731713040732  0.9214751108447672  0.1381404368148651  1.0000
  O   O20       1.0  0.9571289595623966  0.194579842092935  0.16629549047502223  1.0000
  O   O21       1.0  0.6064303682069294  0.6679222145467065  0.1002749283798039  1.0000
  O   O22       1.0  0.7595629715360701  0.0434570579091087  0.3282571481540799  1.0000
  O   O23       1.0  0.7217680765752448  0.07297709418708109  0.7951137421914609  1.0000
  O   O24       1.0  0.30731859216757584  0.9008447343803709  0.6944572256325046  1.0000
data_image75
_chemical_formula_structural       O24
_chemical_formula_sum              "O24"
_cell_length_a       6.65259782
_cell_length_b       6.76810209
_cell_length_c       7.45043691
_cell_angle_alpha    90.0
_cell_angle_beta     90.0
_cell_angle_gamma    90.0

_space_group_name_H-M_alt    "P 1"
_space_group_IT_number       1

loop_
  _space_group_symop_operation_xyz
  'x, y, z'

loop_
  _atom_site_type_symbol
  _atom_site_label
  _atom_site_symmetry_multiplicity
  _atom_site_fract_x
  _atom_site_fract_y
  _atom_site_fract_z
  _atom_site_occupancy
  O   O1        1.0  0.28014820282987785  0.6412516259952099  0.6450867686944548  1.0000
  O   O2        1.0  0.23087770378333516  0.6820188648271142  0.3368596494256053  1.0000
  O   O3        1.0  0.7086382017005235  0.9231954219285399  0.992335231974721  1.0000
  O   O4        1.0  0.8493136425313423  0.6407313329546014  0.9052719334540598  1.0000
  O   O5        1.0  0.5070786098985991  0.4786256413644878  0.7803582398410072  1.0000
  O   O6        1.0  0.6288519797381014  0.5541666166391224  0.853223018348217  1.0000
  O   O7        1.0  0.569899445057672  0.5822883632208686  0.9547907015003148  1.0000
  O   O8        1.0  0.4928345756343333  0.3246063427068293  0.24944746909022797  1.0000
  O   O9        1.0  0.10106332126451889  0.14982397621497512  0.17343207783414982  1.0000
  O   O10       1.0  0.5717959529574728  0.4725242155545857  0.530518173094606  1.0000
  O   O11       1.0  0.12288990488741547  0.22644150754786097  0.5202326355502009  1.0000
  O   O12       1.0  0.27661001321393996  0.187775265192613  0.49281761585734785  1.0000
  O   O13       1.0  0.8863574582937872  0.6921110044931993  0.18012838787399232  1.0000
  O   O14       1.0  0.838380487402901  0.34447538579115644  0.23986913403496146  1.0000
  O   O15       1.0  0.9662653508130461  0.45610076654702425  0.8703682071063668  1.0000
  O   O16       1.0  0.24949726229533553  0.012457218603231013  0.7815247278194875  1.0000
  O   O17       1.0  0.4406072531710379  0.9457810984458774  0.6520584929385222  1.0000
  O   O18       1.0  0.6573197574325604  0.7823155573569238  0.4996916116797365  1.0000
  O   O19       1.0  0.9532976995687932  0.4134725944732054  0.13811513136170106  1.0000
  O   O20       1.0  0.21089119336102158  0.054354721534764394  0.6905201952322386  1.0000
  O   O21       1.0  0.490400687296642  0.14541319047566503  0.9818177000852302  1.0000
  O   O22       1.0  0.814658185467124  0.929304227582179  0.09987391391769052  1.0000
  O   O23       1.0  0.4857092509337235  0.8429619738999463  0.7484570345332031  1.0000
  O   O24       1.0  0.6666140181478113  0.5178031062532682  0.6832020113797626  1.0000
data_image76
_chemical_formula_structural       O24
_chemical_formula_sum              "O24"
_cell_length_a       6.65259782
_cell_length_b       6.76810209
_cell_length_c       7.45043691
_cell_angle_alpha    90.0
_cell_angle_beta     90.0
_cell_angle_gamma    90.0

_space_group_name_H-M_alt    "P 1"
_space_group_IT_number       1

loop_
  _space_group_symop_operation_xyz
  'x, y, z'

loop_
  _atom_site_type_symbol
  _atom_site_label
  _atom_site_symmetry_multiplicity
  _atom_site_fract_x
  _atom_site_fract_y
  _atom_site_fract_z
  _atom_site_occupancy
  O   O1        1.0  0.7186295592109673  0.0764556054782588  0.35096555211930536  1.0000
  O   O2        1.0  0.6188220841577277  0.08578653268341441  0.3767800990026444  1.0000
  O   O3        1.0  0.7972346026217565  0.5210130845662206  0.787877980619669  1.0000
  O   O4        1.0  0.9494366051767429  0.21614975448756013  0.8182659103565584  1.0000
  O   O5        1.0  0.8676331602291611  0.6059747330436949  0.5018400123153697  1.0000
  O   O6        1.0  0.13315868831705302  0.21649975155014545  0.6169104718137532  1.0000
  O   O7        1.0  0.8475335742841708  0.0232046243181685  0.7935288317603408  1.0000
  O   O8        1.0  0.9890904950589174  0.9524826408305671  0.7478103390603792  1.0000
  O   O9        1.0  0.411327890062239  0.10954584370483644  0.6875906383502297  1.0000
  O   O10       1.0  0.5192473644347047  0.9619009396701586  0.021120640129083768  1.0000
  O   O11       1.0  0.4724942819448188  0.06294018495827913  0.2626620694063604  1.0000
  O   O12       1.0  0.41634117846842855  0.016722088446840644  0.2857447712449357  1.0000
  O   O13       1.0  0.5038664710446028  0.48340934549923986  0.28119623800739646  1.0000
  O   O14       1.0  0.24020256062794942  0.6772121729445644  0.10689315391937271  1.0000
  O   O15       1.0  0.41559959505684674  0.04419623105786741  0.7256098871584982  1.0000
  O   O16       1.0  0.4329892969690263  0.5829162204172462  0.05580953857861459  1.0000
  O   O17       1.0  0.8527471506095026  0.48059499519877136  0.7075069843558595  1.0000
  O   O18       1.0  0.13579722812028194  0.40053588335285895  0.825599585310556  1.0000
  O   O19       1.0  0.8123688040359411  0.040583683588920394  0.8839946172738564  1.0000
  O   O20       1.0  0.7840945848147385  0.8176315849996172  0.7562078415794531  1.0000
  O   O21       1.0  0.7224391945055686  0.35089804750168696  0.5931015613605268  1.0000
  O   O22       1.0  0.4002334903925657  0.998210925841704  0.5467824819497764  1.0000
  O   O23       1.0  0.2100350373511901  0.32955412817318575  0.3862842396047199  1.0000
  O   O24       1.0  0.7486773100245045  0.9455809738428798  0.8799166649841936  1.0000
data_image77
_chemical_formula_structural       O24
_chemical_formula_sum              "O24"
_cell_length_a       6.65259782
_cell_length_b       6.76810209
_cell_length_c       7.45043691
_cell_angle_alpha    90.0
_cell_angle_beta     90.0
_cell_angle_gamma    90.0

_space_group_name_H-M_alt    "P 1"
_space_group_IT_number       1

loop_
  _space_group_symop_operation_xyz
  'x, y, z'

loop_
  _atom_site_type_symbol
  _atom_site_label
  _atom_site_symmetry_multiplicity
  _atom_site_fract_x
  _atom_site_fract_y
  _atom_site_fract_z
  _atom_site_occupancy
  O   O1        1.0  0.3920999104739167  0.25895504616346443  0.020595503330696374  1.0000
  O   O2        1.0  0.9308163443638477  0.30781356093939394  0.8090685000352096  1.0000
  O   O3        1.0  0.8599600960733369  0.18066894635558128  0.8621862715808675  1.0000
  O   O4        1.0  0.8037216483207885  0.3235078938960214  0.42342703704343876  1.0000
  O   O5        1.0  0.8472851659316802  0.11671297791326651  0.8280355116366991  1.0000
  O   O6        1.0  0.08738027210347354  0.3068839062470943  0.13000374380499125  1.0000
  O   O7        1.0  0.2309069663460832  0.5344832489499822  0.1588362679576676  1.0000
  O   O8        1.0  0.25240677475812845  0.6142861659172922  0.9786267110612243  1.0000
  O   O9        1.0  0.8072195727945655  0.5645915649220115  0.052781207967200316  1.0000
  O   O10       1.0  0.4245939544343855  0.7690688244183548  0.3950562212266959  1.0000
  O   O11       1.0  0.36864228144986555  0.6230834835441783  0.31192413019016385  1.0000
  O   O12       1.0  0.31855075631756335  0.04459307016804814  0.1373667165171355  1.0000
  O   O13       1.0  0.4428037304605823  0.9359878093237057  0.08108299039304256  1.0000
  O   O14       1.0  0.5436110363807529  0.3997131672804244  0.2559199578827247  1.0000
  O   O15       1.0  0.5737676869612187  0.6533819562755525  0.6699181192088872  1.0000
  O   O16       1.0  0.743010196601972  0.9395317475427873  0.2938129606191069  1.0000
  O   O17       1.0  0.9996483083232306  0.9838048444362357  0.10401477039704332  1.0000
  O   O18       1.0  0.09237804209442402  0.003939832909964025  0.7070197866414674  1.0000
  O   O19       1.0  0.20830811049381737  0.23764561887219315  0.06222329836600693  1.0000
  O   O20       1.0  0.6115329600288533  0.5893358589528361  0.2287799907498993  1.0000
  O   O21       1.0  0.5129193856846541  0.49178178113652393  0.7741455506184138  1.0000
  O   O22       1.0  0.7148480685427785  0.6965188047615811  0.8353436659090221  1.0000
  O   O23       1.0  0.6005338773684343  0.6463211287555168  0.848115476554085  1.0000
  O   O24       1.0  0.6330550417042105  0.7773887739167549  0.03171571611892432  1.0000
data_image78
_chemical_formula_structural       O24
_chemical_formula_sum              "O24"
_cell_length_a       6.65259782
_cell_length_b       6.76810209
_cell_length_c       7.45043691
_cell_angle_alpha    90.0
_cell_angle_beta     90.0
_cell_angle_gamma    90.0

_space_group_name_H-M_alt    "P 1"
_space_group_IT_number       1

loop_
  _space_group_symop_operation_xyz
  'x, y, z'

loop_
  _atom_site_type_symbol
  _atom_site_label
  _atom_site_symmetry_multiplicity
  _atom_site_fract_x
  _atom_site_fract_y
  _atom_site_fract_z
  _atom_site_occupancy
  O   O1        1.0  0.6001010335603496  0.37421472440473735  0.48604154502390884  1.0000
  O   O2        1.0  0.5023693554103374  0.9164198932703584  0.36539743770845234  1.0000
  O   O3        1.0  0.5283454133896157  0.22159972542431206  0.4645688427845016  1.0000
  O   O4        1.0  0.2858055816614069  0.3472680339546059  0.5584861848292348  1.0000
  O   O5        1.0  0.577743501184159  0.8753461261512712  0.9582073608762585  1.0000
  O   O6        1.0  0.19855306262616068  0.7275500538526103  0.9891585961449891  1.0000
  O   O7        1.0  0.14898042660206556  0.36441690209903754  0.9345269160439784  1.0000
  O   O8        1.0  0.006713903057971038  0.3117589135072194  0.7592640902730636  1.0000
  O   O9        1.0  0.9482568576659105  0.7894625752669526  0.09289819578407332  1.0000
  O   O10       1.0  0.4902125941516715  0.6305862871231511  0.4685520594648551  1.0000
  O   O11       1.0  0.4241714710951783  0.21209050278412178  0.610641673905775  1.0000
  O   O12       1.0  0.794042304623872  0.40445996006019413  0.910183790139854  1.0000
  O   O13       1.0  0.04535445482179057  0.2922713862499222  0.8080833154963329  1.0000
  O   O14       1.0  0.6596430224890355  0.5471021806588396  0.8338300899777096  1.0000
  O   O15       1.0  0.4419437874457799  0.6874322395306081  0.5934817204251885  1.0000
  O   O16       1.0  0.07065140735358  0.9157953452668153  0.016157901845872402  1.0000
  O   O17       1.0  0.7302152944612317  0.8318733292398974  0.8336957133869873  1.0000
  O   O18       1.0  0.7434060138674567  0.05155591061338782  0.4141479102545418  1.0000
  O   O19       1.0  0.3699003877263749  0.7140883283427684  0.9565591434075031  1.0000
  O   O20       1.0  0.5373991694068536  0.2715658417873783  0.4442023328738287  1.0000
  O   O21       1.0  0.5202009242493659  0.13141079468186945  0.47694974549813196  1.0000
  O   O22       1.0  0.7008512648753822  0.06603840843308717  0.5250549064949155  1.0000
  O   O23       1.0  0.21722727290762123  0.7690225585902226  0.1871051531197736  1.0000
  O   O24       1.0  0.457911612233147  0.5466700429460616  0.3128055001143366  1.0000
data_image79
_chemical_formula_structural       O24
_chemical_formula_sum              "O24"
_cell_length_a       6.65259782
_cell_length_b       6.76810209
_cell_length_c       7.45043691
_cell_angle_alpha    90.0
_cell_angle_beta     90.0
_cell_angle_gamma    90.0

_space_group_name_H-M_alt    "P 1"
_space_group_IT_number       1

loop_
  _space_group_symop_operation_xyz
  'x, y, z'

loop_
  _atom_site_type_symbol
  _atom_site_label
  _atom_site_symmetry_multiplicity
  _atom_site_fract_x
  _atom_site_fract_y
  _atom_site_fract_z
  _atom_site_occupancy
  O   O1        1.0  0.7394327335350681  0.8124936122767394  0.8513512145145796  1.0000
  O   O2        1.0  0.31080353498691693  0.09927410871023312  0.2637192864494864  1.0000
  O   O3        1.0  0.7305270871147513  0.05695490224752575  0.44755866075865924  1.0000
  O   O4        1.0  0.6797330390181742  0.15358166194346268  0.04982011460015201  1.0000
  O   O5        1.0  0.9426867472975573  0.6929937578825047  0.16084440976555925  1.0000
  O   O6        1.0  0.21980441466439515  0.20896681549493223  0.8868507836014032  1.0000
  O   O7        1.0  0.46111618986469693  0.2763830989715643  0.6213546268918435  1.0000
  O   O8        1.0  0.2534114399459213  0.4935619924799539  0.6901162251306232  1.0000
  O   O9        1.0  0.8643751876688839  0.5308393557497766  0.8692184530082159  1.0000
  O   O10       1.0  0.09375819546403363  0.01740668516140431  0.40406904896372  1.0000
  O   O11       1.0  0.7738985163159668  0.6815798774769064  0.43936710129491985  1.0000
  O   O12       1.0  0.67207320057787  0.21830801176838577  0.3763495759340003  1.0000
  O   O13       1.0  0.20495213761751074  0.7847854180727154  0.9813532422995195  1.0000
  O   O14       1.0  0.4568491622485453  0.024882015015464276  0.05658811054308899  1.0000
  O   O15       1.0  0.9600669516366906  0.9974856798071414  0.05554492468945682  1.0000
  O   O16       1.0  0.15088772727176547  0.8805924193002284  0.9900385774672031  1.0000
  O   O17       1.0  0.9038144268270116  0.21906339097768068  0.13687046036648098  1.0000
  O   O18       1.0  0.9956445200432427  0.9119971907057334  0.7873846692382358  1.0000
  O   O19       1.0  0.03165457467548549  0.2991205928410636  0.6886355727547198  1.0000
  O   O20       1.0  0.8928643424296752  0.4941446374868974  0.35390975535847247  1.0000
  O   O21       1.0  0.16402188516804017  0.2949241157621145  0.04066506365779787  1.0000
  O   O22       1.0  0.697262255474925  0.14052891253959388  0.9505312289111316  1.0000
  O   O23       1.0  0.13996445797965862  0.5015527662908426  0.005319600288203219  1.0000
  O   O24       1.0  0.6603973562596366  0.20857905715092784  0.8925393812824041  1.0000
data_image80
_chemical_formula_structural       O24
_chemical_formula_sum              "O24"
_cell_length_a       6.65259782
_cell_length_b       6.76810209
_cell_length_c       7.45043691
_cell_angle_alpha    90.0
_cell_angle_beta     90.0
_cell_angle_gamma    90.0

_space_group_name_H-M_alt    "P 1"
_space_group_IT_number       1

loop_
  _space_group_symop_operation_xyz
  'x, y, z'

loop_
  _atom_site_type_symbol
  _atom_site_label
  _atom_site_symmetry_multiplicity
  _atom_site_fract_x
  _atom_site_fract_y
  _atom_site_fract_z
  _atom_site_occupancy
  O   O1        1.0  0.47041878961317707  0.9825993341219146  0.666427788179135  1.0000
  O   O2        1.0  0.047197502572089434  0.7937511814161553  0.3437317294010427  1.0000
  O   O3        1.0  0.9957311709877104  0.2926377586554736  0.6617909421911463  1.0000
  O   O4        1.0  0.36079987096309196  0.56370626341959  0.08352759595800308  1.0000
  O   O5        1.0  0.7072324254622799  0.12388702597672818  0.9972001442874898  1.0000
  O   O6        1.0  0.6442383080720901  0.09451808244921267  0.550569826271385  1.0000
  O   O7        1.0  0.7603105221642181  0.47897487255977467  0.26665592683275463  1.0000
  O   O8        1.0  0.54709645366529  0.2677995561098214  0.9564113398664631  1.0000
  O   O9        1.0  0.44517339145750157  0.4733972329995595  0.45407790449098684  1.0000
  O   O10       1.0  0.7831905390557949  0.2620716072851792  0.695599965081783  1.0000
  O   O11       1.0  0.3112570171360858  0.2926986488746479  0.8104071361012757  1.0000
  O   O12       1.0  0.4432802366791293  0.4913449799641967  0.17089001485146582  1.0000
  O   O13       1.0  0.4385579892696114  0.12044807057827711  0.8964513090904802  1.0000
  O   O14       1.0  0.3999444438231876  0.7058092496590689  0.8069695973536  1.0000
  O   O15       1.0  0.5470536273787729  0.17778616212308407  0.3664518566802144  1.0000
  O   O16       1.0  0.46254602284170687  0.7655943054123782  0.7320534221362323  1.0000
  O   O17       1.0  0.9488175204605795  0.47513658984098583  0.3107861684693489  1.0000
  O   O18       1.0  0.5132834404898858  0.5190278566151392  0.4925710723618977  1.0000
  O   O19       1.0  0.16723914734029677  0.017339426478429232  0.8208324559382163  1.0000
  O   O20       1.0  0.009528628317639232  0.7228787522180937  0.9331481899134815  1.0000
  O   O21       1.0  0.9334957077662693  0.3811201228527352  0.7048321105539799  1.0000
  O   O22       1.0  0.6810115831904113  0.8995933739934117  0.2691801143810153  1.0000
  O   O23       1.0  0.987831525184447  0.10738880285498453  0.29407116775473696  1.0000
  O   O24       1.0  0.3947641051490791  0.9904907543023  0.7153622346231714  1.0000
data_image81
_chemical_formula_structural       O24
_chemical_formula_sum              "O24"
_cell_length_a       6.65259782
_cell_length_b       6.76810209
_cell_length_c       7.45043691
_cell_angle_alpha    90.0
_cell_angle_beta     90.0
_cell_angle_gamma    90.0

_space_group_name_H-M_alt    "P 1"
_space_group_IT_number       1

loop_
  _space_group_symop_operation_xyz
  'x, y, z'

loop_
  _atom_site_type_symbol
  _atom_site_label
  _atom_site_symmetry_multiplicity
  _atom_site_fract_x
  _atom_site_fract_y
  _atom_site_fract_z
  _atom_site_occupancy
  O   O1        1.0  0.6370400323648937  0.6587693160836352  0.6143833027163055  1.0000
  O   O2        1.0  0.13779082134715281  0.5769376851712877  0.8469597358780447  1.0000
  O   O3        1.0  0.4483902921201661  0.549958037561737  0.3803258492844179  1.0000
  O   O4        1.0  0.548931455508864  0.3263724266071222  0.9614272809485556  1.0000
  O   O5        1.0  0.009813076518184971  0.006027070543495938  0.9788788254736573  1.0000
  O   O6        1.0  0.07627563376445323  0.2940321178175509  0.9158410937525332  1.0000
  O   O7        1.0  0.5758441785583273  0.92104788555298  0.8759625569291529  1.0000
  O   O8        1.0  0.28142872512398753  0.38262885666335933  0.030500050212140195  1.0000
  O   O9        1.0  0.9195885656008613  0.869449690770125  0.9516848126950208  1.0000
  O   O10       1.0  0.7675141619038186  0.5988005387480371  0.18683537555625662  1.0000
  O   O11       1.0  0.8305684230290353  0.9917712246242445  0.47185029461979866  1.0000
  O   O12       1.0  0.4465691378572956  0.41846257145516574  0.07949140225537121  1.0000
  O   O13       1.0  0.3333777164516505  0.452477952465415  0.37500544742215425  1.0000
  O   O14       1.0  0.03138567919086199  0.9124751907365862  0.16503602714510635  1.0000
  O   O15       1.0  0.26251780323218554  0.5298417694866657  0.9359388451557606  1.0000
  O   O16       1.0  0.020550826331600547  0.23663890972966328  0.8635008258279413  1.0000
  O   O17       1.0  0.9172909781045746  0.7521022749133408  0.6884749649398145  1.0000
  O   O18       1.0  0.02824027297356224  0.7689695926383138  0.975782395049464  1.0000
  O   O19       1.0  0.5426116527523845  0.9621382921177428  0.7420262409577845  1.0000
  O   O20       1.0  0.4994544379878789  0.8923107932787389  0.7086394288344309  1.0000
  O   O21       1.0  0.37673063804686535  0.8142723483615555  0.2778709181002341  1.0000
  O   O22       1.0  0.6901610237546265  0.9496674500405788  0.7765619270503521  1.0000
  O   O23       1.0  0.7454653044987936  0.04514607437158702  0.6493293500425352  1.0000
  O   O24       1.0  0.8724590571364388  0.08970185460930225  0.5476929596625268  1.0000
data_image82
_chemical_formula_structural       O24
_chemical_formula_sum              "O24"
_cell_length_a       6.65259782
_cell_length_b       6.76810209
_cell_length_c       7.45043691
_cell_angle_alpha    90.0
_cell_angle_beta     90.0
_cell_angle_gamma    90.0

_space_group_name_H-M_alt    "P 1"
_space_group_IT_number       1

loop_
  _space_group_symop_operation_xyz
  'x, y, z'

loop_
  _atom_site_type_symbol
  _atom_site_label
  _atom_site_symmetry_multiplicity
  _atom_site_fract_x
  _atom_site_fract_y
  _atom_site_fract_z
  _atom_site_occupancy
  O   O1        1.0  0.002238511573523283  0.9786196594650391  0.8833879314770456  1.0000
  O   O2        1.0  0.8027423889725469  0.11637449355475837  0.7263495785446139  1.0000
  O   O3        1.0  0.8106865925947204  0.33610747824423015  0.08108057850040495  1.0000
  O   O4        1.0  0.29375744822755223  0.9101635808183346  0.9459470287984004  1.0000
  O   O5        1.0  0.3380167563773284  0.2142504245348391  0.8336283540338627  1.0000
  O   O6        1.0  0.8359363535419106  0.9333825540961698  0.6451033048797399  1.0000
  O   O7        1.0  0.8884454193030251  0.4284181506372988  0.7263019169913605  1.0000
  O   O8        1.0  0.05406806344399229  0.25497268268372864  0.3356830957054626  1.0000
  O   O9        1.0  0.9240413542720489  0.3967893891967833  0.14717993677186314  1.0000
  O   O10       1.0  0.3928412264358485  0.5283126592985354  0.47799936938099563  1.0000
  O   O11       1.0  0.5440439391531982  0.770198721322231  0.24914644611999393  1.0000
  O   O12       1.0  0.7524060646537691  0.6296296417713165  0.5126369300996885  1.0000
  O   O13       1.0  0.11861500289523974  0.8832672459539026  0.4565053042024374  1.0000
  O   O14       1.0  0.8059448363637784  0.1596952190157026  0.8353508794971276  1.0000
  O   O15       1.0  0.44936596718616784  0.6869516279548407  0.9553211217280477  1.0000
  O   O16       1.0  0.8042024723254144  0.5949882962740958  0.3842633203603327  1.0000
  O   O17       1.0  0.6561590940691531  0.8572426596656442  0.21092999754910124  1.0000
  O   O18       1.0  0.6537315356072213  0.08997739461483434  0.28556619823211804  1.0000
  O   O19       1.0  0.07123900967417285  0.9111578185402323  0.1584385612877668  1.0000
  O   O20       1.0  0.5819717175327241  0.05193095206050202  0.07856914424337447  1.0000
  O   O21       1.0  0.4487766367383301  0.19170556421158835  0.29892663401551545  1.0000
  O   O22       1.0  0.8969208146445453  0.7593969263834879  0.7689827075228095  1.0000
  O   O23       1.0  0.3409155423869379  0.10794375663681421  0.25224070361218764  1.0000
  O   O24       1.0  0.5329331351676956  0.20852301297418308  0.7504607586888596  1.0000
data_image83
_chemical_formula_structural       O24
_chemical_formula_sum              "O24"
_cell_length_a       6.65259782
_cell_length_b       6.76810209
_cell_length_c       7.45043691
_cell_angle_alpha    90.0
_cell_angle_beta     90.0
_cell_angle_gamma    90.0

_space_group_name_H-M_alt    "P 1"
_space_group_IT_number       1

loop_
  _space_group_symop_operation_xyz
  'x, y, z'

loop_
  _atom_site_type_symbol
  _atom_site_label
  _atom_site_symmetry_multiplicity
  _atom_site_fract_x
  _atom_site_fract_y
  _atom_site_fract_z
  _atom_site_occupancy
  O   O1        1.0  0.7483001343134674  0.8628476282610791  0.25647727539762855  1.0000
  O   O2        1.0  0.07988358137663454  0.3438941519052605  0.13200531389156822  1.0000
  O   O3        1.0  0.03147439763415605  0.48916545847896487  0.3430460733361542  1.0000
  O   O4        1.0  0.8425246121259988  0.4715461546438746  0.2038735240457754  1.0000
  O   O5        1.0  0.4678781787006301  0.5096286052721553  0.044539356385939755  1.0000
  O   O6        1.0  0.13341151073109359  0.02646420628298074  0.25063857971690595  1.0000
  O   O7        1.0  0.6883579491695855  0.7543646207195707  0.8190266818201053  1.0000
  O   O8        1.0  0.9604376770294039  0.9136887633358128  0.1538366334279999  1.0000
  O   O9        1.0  0.2744287836583226  0.2355908366444055  0.863186403788859  1.0000
  O   O10       1.0  0.7563749855034985  0.3803631124610547  0.13852641455014236  1.0000
  O   O11       1.0  0.673214198788628  0.7433138992928434  0.771526183700189  1.0000
  O   O12       1.0  0.6169588343473151  0.8853155109100044  0.6384450379991904  1.0000
  O   O13       1.0  0.9424136331363115  0.18444853357505053  0.18203828169498593  1.0000
  O   O14       1.0  0.05773948988644406  0.2022915523557458  0.00905254298413638  1.0000
  O   O15       1.0  0.6755207271780819  0.13121941313147545  0.7390754809603095  1.0000
  O   O16       1.0  0.32141936058178544  0.11670083156786859  0.4396396051160991  1.0000
  O   O17       1.0  0.9801891804381739  0.005628617247566581  0.7908006521174684  1.0000
  O   O18       1.0  0.6641770325204561  0.7951863708731253  0.8309110287227668  1.0000
  O   O19       1.0  0.35294100470491685  0.8780431498889811  0.5593185770849232  1.0000
  O   O20       1.0  0.17372350255027413  0.35797467184602283  0.5647189856972545  1.0000
  O   O21       1.0  0.3658718269143719  0.7658980684936978  0.8532648526597768  1.0000
  O   O22       1.0  0.29223552951589227  0.29841358365956694  0.546190906316042  1.0000
  O   O23       1.0  0.39333098630595487  0.014786569110583514  0.47230747835419606  1.0000
  O   O24       1.0  0.5071927834069356  0.6332256034365855  0.3975539213279262  1.0000
data_image84
_chemical_formula_structural       O24
_chemical_formula_sum              "O24"
_cell_length_a       6.65259782
_cell_length_b       6.76810209
_cell_length_c       7.45043691
_cell_angle_alpha    90.0
_cell_angle_beta     90.0
_cell_angle_gamma    90.0

_space_group_name_H-M_alt    "P 1"
_space_group_IT_number       1

loop_
  _space_group_symop_operation_xyz
  'x, y, z'

loop_
  _atom_site_type_symbol
  _atom_site_label
  _atom_site_symmetry_multiplicity
  _atom_site_fract_x
  _atom_site_fract_y
  _atom_site_fract_z
  _atom_site_occupancy
  O   O1        1.0  0.19627122009842424  0.22549544197681826  0.7918098813679535  1.0000
  O   O2        1.0  0.4986955213244073  0.6991099377119099  0.6762911372934468  1.0000
  O   O3        1.0  0.4829457012237981  0.9169686668319628  0.4595243049552664  1.0000
  O   O4        1.0  0.09896597961051157  0.5610878257357399  0.617075629572355  1.0000
  O   O5        1.0  0.38491433682793286  0.08606126737140585  0.4641998156730551  1.0000
  O   O6        1.0  0.7367458732333034  0.5367998983711004  0.4485447669867426  1.0000
  O   O7        1.0  0.9893087765813107  0.5889802824240178  0.5493539166418486  1.0000
  O   O8        1.0  0.08390748201054521  0.5076160667522345  0.37472535263805185  1.0000
  O   O9        1.0  0.5568286478372784  0.8887084359303117  0.44243624903901946  1.0000
  O   O10       1.0  0.8675713048287435  0.5691598985285964  0.5353092105942778  1.0000
  O   O11       1.0  0.6423213455709629  0.01882466781535186  0.09380786819383502  1.0000
  O   O12       1.0  0.7281186953186989  0.7527997323777527  0.785463790060021  1.0000
  O   O13       1.0  0.4586666682444047  0.7740792045369744  0.9842357615707442  1.0000
  O   O14       1.0  0.7307925267668907  0.07852059317519888  0.0949322658998426  1.0000
  O   O15       1.0  0.9250116474577226  0.4198102371301502  0.3205816331319511  1.0000
  O   O16       1.0  0.46684448164887726  0.7439738978864625  0.46797545440495014  1.0000
  O   O17       1.0  0.687875995063223  0.37327180424472317  0.9518937874345283  1.0000
  O   O18       1.0  0.05848829565411506  0.10870377960964106  0.8774902876466513  1.0000
  O   O19       1.0  0.1759898287418764  0.9644779178488534  0.03590996240382083  1.0000
  O   O20       1.0  0.744797196937725  0.19114385326975025  0.8703186023049057  1.0000
  O   O21       1.0  0.04987701214849949  0.4571277294307947  0.12697519251378253  1.0000
  O   O22       1.0  0.4764753426425159  0.19646663905587047  0.4076527124270797  1.0000
  O   O23       1.0  0.8869984523043968  0.40154112072559656  0.18472130894224392  1.0000
  O   O24       1.0  0.07158757915021852  0.9392710421470838  0.438770865323022  1.0000
data_image85
_chemical_formula_structural       O24
_chemical_formula_sum              "O24"
_cell_length_a       6.65259782
_cell_length_b       6.76810209
_cell_length_c       7.45043691
_cell_angle_alpha    90.0
_cell_angle_beta     90.0
_cell_angle_gamma    90.0

_space_group_name_H-M_alt    "P 1"
_space_group_IT_number       1

loop_
  _space_group_symop_operation_xyz
  'x, y, z'

loop_
  _atom_site_type_symbol
  _atom_site_label
  _atom_site_symmetry_multiplicity
  _atom_site_fract_x
  _atom_site_fract_y
  _atom_site_fract_z
  _atom_site_occupancy
  O   O1        1.0  0.3253448846517131  0.6832427617773646  0.2097454865288455  1.0000
  O   O2        1.0  0.299694987188559  0.6177355424515554  0.40070226934039965  1.0000
  O   O3        1.0  0.9774329096544534  0.6267764214426279  0.19605249888263643  1.0000
  O   O4        1.0  0.9972668119226  0.03134248514834326  0.9127527501514123  1.0000
  O   O5        1.0  0.9483589968003798  0.4875394865812268  0.46379916634759866  1.0000
  O   O6        1.0  0.00336256658192724  0.8890452599152923  0.37093097390607  1.0000
  O   O7        1.0  0.6758353508630535  0.8843251649523154  0.03567635613580933  1.0000
  O   O8        1.0  0.6419688500172924  0.734169737843331  0.5174241306085605  1.0000
  O   O9        1.0  0.4928062910157678  0.2912706113711465  0.5659911262919195  1.0000
  O   O10       1.0  0.9404924205300631  0.12031075041159056  0.05961685098009184  1.0000
  O   O11       1.0  0.043792405107524246  0.7319627977267373  0.1235330409836024  1.0000
  O   O12       1.0  0.7785956610459834  0.6175104908179492  0.7581443774979562  1.0000
  O   O13       1.0  0.09051016357261688  0.34491319791413844  0.11439447058364749  1.0000
  O   O14       1.0  0.7579591213871026  0.9746840734733269  0.03119108351529576  1.0000
  O   O15       1.0  0.06188455899246037  0.5947227694559842  0.6802249066531658  1.0000
  O   O16       1.0  0.9532433322165161  0.27717888285405934  0.4758445380721241  1.0000
  O   O17       1.0  0.6579649781924672  0.7844772361568175  0.05915277647545736  1.0000
  O   O18       1.0  0.8585676346829132  0.4530073333007749  0.6686970532173291  1.0000
  O   O19       1.0  0.6116833771811798  0.23266471453825943  0.6928418245806824  1.0000
  O   O20       1.0  0.5972356287529692  0.06471614158363082  0.827660457114689  1.0000
  O   O21       1.0  0.7374824136641109  0.12403780577005818  0.9402657033060677  1.0000
  O   O22       1.0  0.374625681899488  0.377672738279216  0.3482488845475018  1.0000
  O   O23       1.0  0.11297190067125484  0.05550170639071439  0.6301371666195337  1.0000
  O   O24       1.0  0.060919023118913174  0.0011918013988179155  0.9169717009644955  1.0000
data_image86
_chemical_formula_structural       O24
_chemical_formula_sum              "O24"
_cell_length_a       6.65259782
_cell_length_b       6.76810209
_cell_length_c       7.45043691
_cell_angle_alpha    90.0
_cell_angle_beta     90.0
_cell_angle_gamma    90.0

_space_group_name_H-M_alt    "P 1"
_space_group_IT_number       1

loop_
  _space_group_symop_operation_xyz
  'x, y, z'

loop_
  _atom_site_type_symbol
  _atom_site_label
  _atom_site_symmetry_multiplicity
  _atom_site_fract_x
  _atom_site_fract_y
  _atom_site_fract_z
  _atom_site_occupancy
  O   O1        1.0  0.6313754184884601  0.9184565557661699  0.6826326441077981  1.0000
  O   O2        1.0  0.18624931323574856  0.7496458225214155  0.038738590956199914  1.0000
  O   O3        1.0  0.13236038805916905  0.3926074777264148  0.8488038916839287  1.0000
  O   O4        1.0  0.574295345635619  0.8601087953720707  0.35432883983594365  1.0000
  O   O5        1.0  0.8248596442717826  0.37668872468930203  0.7777143992425408  1.0000
  O   O6        1.0  0.9266157012898475  0.9331350828288123  0.29830791149288416  1.0000
  O   O7        1.0  0.38585963704099413  0.27388013232848607  0.09649639201870741  1.0000
  O   O8        1.0  0.23581882299185963  0.006562173832207918  0.4263245980546344  1.0000
  O   O9        1.0  0.4307398930164936  0.5728709617396817  0.818265721667558  1.0000
  O   O10       1.0  0.8421637625724543  0.28651815818739124  0.4323591615539044  1.0000
  O   O11       1.0  0.3021719323587604  0.547758347063791  0.2211737090256065  1.0000
  O   O12       1.0  0.35116237157490104  0.47292260313406587  0.7721043307101354  1.0000
  O   O13       1.0  0.050361505534965545  0.6420063335681334  0.6498756863875315  1.0000
  O   O14       1.0  0.1434872780519072  0.06554290239000693  0.5946293614979368  1.0000
  O   O15       1.0  0.2397802594350651  0.5661740330979228  0.45849725510925055  1.0000
  O   O16       1.0  0.5572484328877181  0.5876928322250023  0.6963909193873405  1.0000
  O   O17       1.0  0.4723279682802968  0.6793170935707167  0.9550699299124972  1.0000
  O   O18       1.0  0.43748839215550106  0.5215994638565462  0.06821461446816102  1.0000
  O   O19       1.0  0.19238784915069118  0.06888413376873359  0.5321015395456925  1.0000
  O   O20       1.0  0.6709664983209223  0.2112504794204142  0.410706669325009  1.0000
  O   O21       1.0  0.1909836395061575  0.5696700966800563  0.6480755599914119  1.0000
  O   O22       1.0  0.5163889820687473  0.7719559073448181  0.8285242482088506  1.0000
  O   O23       1.0  0.9245542755816132  0.9196420940606913  0.8584269338753074  1.0000
  O   O24       1.0  0.7803526839707047  0.005109694480779581  0.5322365874890238  1.0000
data_image87
_chemical_formula_structural       O24
_chemical_formula_sum              "O24"
_cell_length_a       6.65259782
_cell_length_b       6.76810209
_cell_length_c       7.45043691
_cell_angle_alpha    90.0
_cell_angle_beta     90.0
_cell_angle_gamma    90.0

_space_group_name_H-M_alt    "P 1"
_space_group_IT_number       1

loop_
  _space_group_symop_operation_xyz
  'x, y, z'

loop_
  _atom_site_type_symbol
  _atom_site_label
  _atom_site_symmetry_multiplicity
  _atom_site_fract_x
  _atom_site_fract_y
  _atom_site_fract_z
  _atom_site_occupancy
  O   O1        1.0  0.56722340369015  0.2645966893469449  0.8282296205288731  1.0000
  O   O2        1.0  0.11070895369630307  0.03330386954621645  0.34996028008754365  1.0000
  O   O3        1.0  0.5242810897761956  0.4223870848072693  0.7738880289252847  1.0000
  O   O4        1.0  0.22226443608815316  0.6759082782155019  0.8419932443721336  1.0000
  O   O5        1.0  0.5946935062092962  0.7965863124700263  0.5815220829681493  1.0000
  O   O6        1.0  0.0350314867682755  0.5001998455263674  0.4656083604786545  1.0000
  O   O7        1.0  0.17756624238245422  0.6739796427718829  0.3964113347392413  1.0000
  O   O8        1.0  0.22607362934650155  0.31161136185983196  0.8914569791595568  1.0000
  O   O9        1.0  0.6294408901976567  0.1505263485305477  0.7355661969049834  1.0000
  O   O10       1.0  0.6679335213266313  0.4192691307980567  0.5021889245253988  1.0000
  O   O11       1.0  0.5044313563266769  0.25797268233145587  0.04462892934679985  1.0000
  O   O12       1.0  0.7743948842398822  0.262640519766137  0.5679645988857374  1.0000
  O   O13       1.0  0.994715946901124  0.3011215478181839  0.6345217047492042  1.0000
  O   O14       1.0  0.7897591770888539  0.8275653287419118  0.13204211092670448  1.0000
  O   O15       1.0  0.9562313198111951  0.25615880475379527  0.8614620750304312  1.0000
  O   O16       1.0  0.10763338347896934  0.9408210049150512  0.03694276139140129  1.0000
  O   O17       1.0  0.5486521941493265  0.592589506006334  0.10515991353349818  1.0000
  O   O18       1.0  0.9889824075144134  0.31480145108071156  0.5303722062380984  1.0000
  O   O19       1.0  0.686353487893939  0.09746120386989787  0.4640324611973483  1.0000
  O   O20       1.0  0.6855995479272678  0.8975376604939811  0.2960206837160513  1.0000
  O   O21       1.0  0.9593324544111965  0.8456822702428326  0.3471670478465967  1.0000
  O   O22       1.0  0.9398196428082883  0.7130993482423946  0.866711507551372  1.0000
  O   O23       1.0  0.7692931233905256  0.921000912444697  0.6660246897081379  1.0000
  O   O24       1.0  0.5395839603152126  0.5231791087717284  0.08012370951473713  1.0000
data_image88
_chemical_formula_structural       O24
_chemical_formula_sum              "O24"
_cell_length_a       6.65259782
_cell_length_b       6.76810209
_cell_length_c       7.45043691
_cell_angle_alpha    90.0
_cell_angle_beta     90.0
_cell_angle_gamma    90.0

_space_group_name_H-M_alt    "P 1"
_space_group_IT_number       1

loop_
  _space_group_symop_operation_xyz
  'x, y, z'

loop_
  _atom_site_type_symbol
  _atom_site_label
  _atom_site_symmetry_multiplicity
  _atom_site_fract_x
  _atom_site_fract_y
  _atom_site_fract_z
  _atom_site_occupancy
  O   O1        1.0  0.27882072831562255  0.6004449168249266  0.7983462400152348  1.0000
  O   O2        1.0  0.9287450790870935  0.09800483867002185  0.23254562310467009  1.0000
  O   O3        1.0  0.944846254074946  0.4968503116397187  0.4057850929675624  1.0000
  O   O4        1.0  0.3809337663115002  0.5158572551372345  0.7694516178053163  1.0000
  O   O5        1.0  0.018101738125551492  0.35788344861066435  0.5638435498112813  1.0000
  O   O6        1.0  0.28894152073189616  0.40225959254894406  0.9699388509616256  1.0000
  O   O7        1.0  0.49842709436052246  0.8554159089690074  0.8267037733494362  1.0000
  O   O8        1.0  0.5480205121566541  0.5285093830607366  0.9460895342417643  1.0000
  O   O9        1.0  0.6923732865980128  0.9007736055355053  0.5798798104078742  1.0000
  O   O10       1.0  0.37197716345690424  0.7712492684950121  0.4243555362918414  1.0000
  O   O11       1.0  0.025009281001985073  0.7500260359665845  0.8428070363588631  1.0000
  O   O12       1.0  0.5226994963595644  0.5100956039968878  0.8157735832501203  1.0000
  O   O13       1.0  0.6579257767880335  0.9683594049420208  0.17291706602554768  1.0000
  O   O14       1.0  0.39961242985737044  0.28008124290499836  0.17014607071178034  1.0000
  O   O15       1.0  0.9182949785608798  0.09695205255411565  0.47963551385328174  1.0000
  O   O16       1.0  0.5370405274443328  0.443529189331457  0.0972626677248627  1.0000
  O   O17       1.0  0.6734042617026716  0.5925968849333003  0.9768724330933765  1.0000
  O   O18       1.0  0.6981658628660625  0.8198991749959532  0.45872163586318493  1.0000
  O   O19       1.0  0.3027434214600362  0.7175366129085887  0.9944635196588933  1.0000
  O   O20       1.0  0.11809933627955616  0.1422459112945944  0.1407753024250269  1.0000
  O   O21       1.0  0.7251877613744  0.4572992419125512  0.9945513852289878  1.0000
  O   O22       1.0  0.6908974121324718  0.583718107896857  0.9782403348945081  1.0000
  O   O23       1.0  0.4280245831323555  0.6783249112195335  0.06149527634261176  1.0000
  O   O24       1.0  0.35170777421444654  0.43208711125771515  0.29939791571814567  1.0000
data_image89
_chemical_formula_structural       O24
_chemical_formula_sum              "O24"
_cell_length_a       6.65259782
_cell_length_b       6.76810209
_cell_length_c       7.45043691
_cell_angle_alpha    90.0
_cell_angle_beta     90.0
_cell_angle_gamma    90.0

_space_group_name_H-M_alt    "P 1"
_space_group_IT_number       1

loop_
  _space_group_symop_operation_xyz
  'x, y, z'

loop_
  _atom_site_type_symbol
  _atom_site_label
  _atom_site_symmetry_multiplicity
  _atom_site_fract_x
  _atom_site_fract_y
  _atom_site_fract_z
  _atom_site_occupancy
  O   O1        1.0  0.7343173418303195  0.13057955336989835  0.21490247923065908  1.0000
  O   O2        1.0  0.7143178819678724  0.316470387915615  0.5070139199669939  1.0000
  O   O3        1.0  0.7304880180163309  0.7195614620577544  0.2068922856124118  1.0000
  O   O4        1.0  0.8704490614545648  0.03288132968737045  0.284144792756706  1.0000
  O   O5        1.0  0.40778246622357983  0.14697855738631915  0.6452334827044979  1.0000
  O   O6        1.0  0.9084514543646947  0.19483660231344402  0.19155128090642393  1.0000
  O   O7        1.0  0.8057943326057284  0.6684439486125484  0.32081449278484797  1.0000
  O   O8        1.0  0.5649742038949626  0.7569256969727576  0.6942827242746716  1.0000
  O   O9        1.0  0.5480026036748313  0.7948945979878772  0.8263225651171524  1.0000
  O   O10       1.0  0.31897149235010147  0.09109883499331772  0.13123267600894906  1.0000
  O   O11       1.0  0.9414852395420894  0.5371218255022541  0.4369397379923612  1.0000
  O   O12       1.0  0.06786749907769263  0.8355451598763466  0.9596836401615292  1.0000
  O   O13       1.0  0.9263743242336204  0.5407646162202582  0.3342547044157982  1.0000
  O   O14       1.0  0.27263362250232603  0.8884132105740719  0.9437310647044796  1.0000
  O   O15       1.0  0.4329715294879861  0.1941843810491264  0.685596892144531  1.0000
  O   O16       1.0  0.3551253129262477  0.4814298505662009  0.21745287510566413  1.0000
  O   O17       1.0  0.7919008876779117  0.06758415221702307  0.6734639507194515  1.0000
  O   O18       1.0  0.06202957333880477  0.15688947081798688  0.19949759502196684  1.0000
  O   O19       1.0  0.12859882332850248  0.47198666344047524  0.1835708638827782  1.0000
  O   O20       1.0  0.35809283307753503  0.3646751921623945  0.958758901571855  1.0000
  O   O21       1.0  0.40180889128532726  0.7289830587687902  0.748997699120082  1.0000
  O   O22       1.0  0.021888196002691984  0.4221722660586238  0.2636026651598513  1.0000
  O   O23       1.0  0.6117323596263304  0.5801705781186683  0.2956425306474557  1.0000
  O   O24       1.0  0.023942134634125978  0.8774086552730296  0.07641548523679376  1.0000
data_image90
_chemical_formula_structural       O24
_chemical_formula_sum              "O24"
_cell_length_a       6.65259782
_cell_length_b       6.76810209
_cell_length_c       7.45043691
_cell_angle_alpha    90.0
_cell_angle_beta     90.0
_cell_angle_gamma    90.0

_space_group_name_H-M_alt    "P 1"
_space_group_IT_number       1

loop_
  _space_group_symop_operation_xyz
  'x, y, z'

loop_
  _atom_site_type_symbol
  _atom_site_label
  _atom_site_symmetry_multiplicity
  _atom_site_fract_x
  _atom_site_fract_y
  _atom_site_fract_z
  _atom_site_occupancy
  O   O1        1.0  0.3068523864567396  0.6210699995426694  0.22222800241434015  1.0000
  O   O2        1.0  0.25420521304477006  0.6421291804144857  0.4712760181573685  1.0000
  O   O3        1.0  0.08364768663886935  0.0216756253503263  0.9850808401824906  1.0000
  O   O4        1.0  0.7378880515752826  0.4473592151989578  0.48966388253029436  1.0000
  O   O5        1.0  0.6917427716543898  0.13103333761682734  0.7687922347104177  1.0000
  O   O6        1.0  0.7671458133263513  0.8917854059254751  0.5474605488125235  1.0000
  O   O7        1.0  0.8991376966732787  0.17426832305500284  0.3228864502161741  1.0000
  O   O8        1.0  0.30186208696250105  0.5277755749993958  0.9774407989389147  1.0000
  O   O9        1.0  0.4434222744202998  0.44723939402319957  0.3314717197645223  1.0000
  O   O10       1.0  0.9764273336732003  0.5829950940096751  0.3754821256152354  1.0000
  O   O11       1.0  0.48659630597103387  0.6669142989849206  0.8243791898712516  1.0000
  O   O12       1.0  0.2801620197715238  0.008731763577088714  0.1942015796666965  1.0000
  O   O13       1.0  0.23762140281905886  0.2190123505424708  0.9399473185185343  1.0000
  O   O14       1.0  0.48412699043547036  0.943615161231719  0.7280623536207713  1.0000
  O   O15       1.0  0.8184529088903219  0.6502470350824296  0.5005540291313082  1.0000
  O   O16       1.0  0.7644237780477852  0.46708594780648127  0.0923424125649035  1.0000
  O   O17       1.0  0.9300017406931147  0.7890969122527167  0.557495936343912  1.0000
  O   O18       1.0  0.4670437899767421  0.8877728369552642  0.7212476059794426  1.0000
  O   O19       1.0  0.5658376319915988  0.22605448425747454  0.23206703082541935  1.0000
  O   O20       1.0  0.6248244405724108  0.09945260619861074  0.12139711529016495  1.0000
  O   O21       1.0  0.18436283455230296  0.27150845201686025  0.9995300825685263  1.0000
  O   O22       1.0  0.4812514130026102  0.5580605735303834  0.8866508863866329  1.0000
  O   O23       1.0  0.6817625633848365  0.3828069627079458  0.9233356791228289  1.0000
  O   O24       1.0  0.5312010397319682  0.34230951085919514  0.7870054258964956  1.0000
data_image91
_chemical_formula_structural       O24
_chemical_formula_sum              "O24"
_cell_length_a       6.65259782
_cell_length_b       6.76810209
_cell_length_c       7.45043691
_cell_angle_alpha    90.0
_cell_angle_beta     90.0
_cell_angle_gamma    90.0

_space_group_name_H-M_alt    "P 1"
_space_group_IT_number       1

loop_
  _space_group_symop_operation_xyz
  'x, y, z'

loop_
  _atom_site_type_symbol
  _atom_site_label
  _atom_site_symmetry_multiplicity
  _atom_site_fract_x
  _atom_site_fract_y
  _atom_site_fract_z
  _atom_site_occupancy
  O   O1        1.0  0.21318250843251008  0.1961193572060438  0.9139040222507901  1.0000
  O   O2        1.0  0.7755379625014029  0.8539965212985408  0.6683529472502414  1.0000
  O   O3        1.0  0.9752304728608578  0.08856820326764137  0.8841480162227526  1.0000
  O   O4        1.0  0.49502096311334753  0.9673247910250211  0.21298081702843774  1.0000
  O   O5        1.0  0.7177216738200514  0.9823276303068269  0.9483897840837017  1.0000
  O   O6        1.0  0.859052135492675  0.05097312154248357  0.9417781813535839  1.0000
  O   O7        1.0  0.9905436133412877  0.8256126902415417  0.12000755622284487  1.0000
  O   O8        1.0  0.42637134884716943  0.452735539060086  0.23395242688275175  1.0000
  O   O9        1.0  0.36307490496255923  0.9522424704919104  0.28759125246142503  1.0000
  O   O10       1.0  0.775293421720562  0.35954829526599497  0.2888084144797176  1.0000
  O   O11       1.0  0.9808877449831925  0.22246531312703155  0.011744838207960129  1.0000
  O   O12       1.0  0.601852722116746  0.2580351447686553  0.051943049766123295  1.0000
  O   O13       1.0  0.58181282201258  0.633300849236548  0.6143664523260668  1.0000
  O   O14       1.0  0.2196233902432141  0.0753029900661204  0.7604231087025255  1.0000
  O   O15       1.0  0.6197951068170369  0.6600931084249169  0.7106596692465246  1.0000
  O   O16       1.0  0.40055257407948375  0.6992145598633215  0.7492598935496062  1.0000
  O   O17       1.0  0.24468056217301637  0.2993645564420149  0.14567562255251687  1.0000
  O   O18       1.0  0.9628207570203813  0.38433295584400184  0.5697002512752078  1.0000
  O   O19       1.0  0.7902298924745992  0.8835049349872861  0.6395881502830889  1.0000
  O   O20       1.0  0.6492442908929661  0.864183468016563  0.6816594254923984  1.0000
  O   O21       1.0  0.2237144485261524  0.6800835923058912  0.2751923918258399  1.0000
  O   O22       1.0  0.5085961879231036  0.9741239784052595  0.7970234705135226  1.0000
  O   O23       1.0  0.38238624209770933  0.7483632497196595  0.4824417604904738  1.0000
  O   O24       1.0  0.2427744370070286  0.8881827298610006  0.010407748282887042  1.0000
data_image92
_chemical_formula_structural       O24
_chemical_formula_sum              "O24"
_cell_length_a       6.65259782
_cell_length_b       6.76810209
_cell_length_c       7.45043691
_cell_angle_alpha    90.0
_cell_angle_beta     90.0
_cell_angle_gamma    90.0

_space_group_name_H-M_alt    "P 1"
_space_group_IT_number       1

loop_
  _space_group_symop_operation_xyz
  'x, y, z'

loop_
  _atom_site_type_symbol
  _atom_site_label
  _atom_site_symmetry_multiplicity
  _atom_site_fract_x
  _atom_site_fract_y
  _atom_site_fract_z
  _atom_site_occupancy
  O   O1        1.0  0.03945440012466861  0.06714994979847688  0.5017099115939345  1.0000
  O   O2        1.0  0.7300923737348057  0.6251897912370623  0.2578297410509549  1.0000
  O   O3        1.0  0.9701115216594189  0.8195320114027709  0.541162523557432  1.0000
  O   O4        1.0  0.6254908534538117  0.6814597574411891  0.008859071574988775  1.0000
  O   O5        1.0  0.15691632508242037  0.6112426090112422  0.5246030209818855  1.0000
  O   O6        1.0  0.7513154053594917  0.9187221040483564  0.16946730948984623  1.0000
  O   O7        1.0  0.11626361141679808  0.7701070561306551  0.6359287306695478  1.0000
  O   O8        1.0  0.3467893761044252  0.6781590619939379  0.38777068264607806  1.0000
  O   O9        1.0  0.10221016474679345  0.5009960229508579  0.869058012671303  1.0000
  O   O10       1.0  0.8399309087653819  0.44745560284354724  0.5539521958562545  1.0000
  O   O11       1.0  0.06918218143982813  0.10484194237506017  0.27928127720952034  1.0000
  O   O12       1.0  0.39819105190690607  0.2769227996468544  0.9999091499485075  1.0000
  O   O13       1.0  0.047860036240308546  0.6720167862949893  0.424414862296544  1.0000
  O   O14       1.0  0.14397724263108103  0.2959017160756048  0.9115862293110695  1.0000
  O   O15       1.0  0.6506421309895813  0.001375233056023717  0.4519882465247065  1.0000
  O   O16       1.0  0.10233690426684916  0.32966304663568735  0.8636394580826163  1.0000
  O   O17       1.0  0.35888951481319964  0.7574050890980288  0.6916613090434112  1.0000
  O   O18       1.0  0.5519504259391397  0.8661563592613675  0.5174341770471074  1.0000
  O   O19       1.0  0.778616125928238  0.6693536374077667  0.4898213195265271  1.0000
  O   O20       1.0  0.6184432962909341  0.25955790901207365  0.16553318954538554  1.0000
  O   O21       1.0  0.5539864204329206  0.546126717235893  0.7700620311661623  1.0000
  O   O22       1.0  0.8220659643411636  0.5429192563751712  0.04652568185701966  1.0000
  O   O23       1.0  0.9265041523758555  0.13217462156262627  0.6057161040662322  1.0000
  O   O24       1.0  0.2987797943642363  0.4255709625722375  0.332084997324273  1.0000
data_image93
_chemical_formula_structural       O24
_chemical_formula_sum              "O24"
_cell_length_a       6.65259782
_cell_length_b       6.76810209
_cell_length_c       7.45043691
_cell_angle_alpha    90.0
_cell_angle_beta     90.0
_cell_angle_gamma    90.0

_space_group_name_H-M_alt    "P 1"
_space_group_IT_number       1

loop_
  _space_group_symop_operation_xyz
  'x, y, z'

loop_
  _atom_site_type_symbol
  _atom_site_label
  _atom_site_symmetry_multiplicity
  _atom_site_fract_x
  _atom_site_fract_y
  _atom_site_fract_z
  _atom_site_occupancy
  O   O1        1.0  0.8886482041343697  0.32512472101370804  0.7288170184765477  1.0000
  O   O2        1.0  0.2025700713857077  0.15166653985215817  0.6631783762713894  1.0000
  O   O3        1.0  0.05040771409403533  0.4521019778912887  0.5122732823947445  1.0000
  O   O4        1.0  0.42247900157235563  0.21448341754148714  0.0791321544238599  1.0000
  O   O5        1.0  0.7906699224186013  0.2164579497766681  0.9275178509124089  1.0000
  O   O6        1.0  0.2796119765844196  0.6122330520302057  0.6211459655314684  1.0000
  O   O7        1.0  0.404904070077464  0.1477257269434631  0.9732906196877593  1.0000
  O   O8        1.0  0.03942571271909401  0.13437540270388126  0.45372480520018144  1.0000
  O   O9        1.0  0.9548966562797432  0.38055920698388945  0.26098716410342604  1.0000
  O   O10       1.0  0.5144253870239481  0.6091508500976488  0.40104597856407054  1.0000
  O   O11       1.0  0.22477605135645717  0.532189603196457  0.6477093405555934  1.0000
  O   O12       1.0  0.16004690784029663  0.5334652904421091  0.8828465503174812  1.0000
  O   O13       1.0  0.8252758313756203  0.1322760214097798  0.04568392864894122  1.0000
  O   O14       1.0  0.1620037225075066  0.8327545333886519  0.2472551231912803  1.0000
  O   O15       1.0  0.47488113172585145  0.4345724736340344  0.766433518845588  1.0000
  O   O16       1.0  0.11041782354004681  0.5329115696949884  0.5174013369251043  1.0000
  O   O17       1.0  0.30307729891501367  0.9233991988003254  0.5289896981994389  1.0000
  O   O18       1.0  0.39146687974061933  0.697173523978563  0.4605180924409069  1.0000
  O   O19       1.0  0.39110299048479646  0.4616756111790892  0.9934745501668658  1.0000
  O   O20       1.0  0.4756829193793237  0.8137513257097453  0.8412517746910453  1.0000
  O   O21       1.0  0.23278010297508445  0.4367629329790361  0.8012006321805529  1.0000
  O   O22       1.0  0.5820820792578161  0.18029850663151592  0.7171594868414104  1.0000
  O   O23       1.0  0.6057490552775562  0.26760575280422927  0.1926422604446998  1.0000
  O   O24       1.0  0.5126187292626128  0.9772847916610772  0.7363197858212516  1.0000
data_image94
_chemical_formula_structural       O24
_chemical_formula_sum              "O24"
_cell_length_a       6.65259782
_cell_length_b       6.76810209
_cell_length_c       7.45043691
_cell_angle_alpha    90.0
_cell_angle_beta     90.0
_cell_angle_gamma    90.0

_space_group_name_H-M_alt    "P 1"
_space_group_IT_number       1

loop_
  _space_group_symop_operation_xyz
  'x, y, z'

loop_
  _atom_site_type_symbol
  _atom_site_label
  _atom_site_symmetry_multiplicity
  _atom_site_fract_x
  _atom_site_fract_y
  _atom_site_fract_z
  _atom_site_occupancy
  O   O1        1.0  0.4909184191492386  0.9902389757626224  0.12160260585369542  1.0000
  O   O2        1.0  0.06303514650790021  0.39335641483194195  0.33049842588661704  1.0000
  O   O3        1.0  0.7166318986564875  0.5210208848584443  0.8180428564082831  1.0000
  O   O4        1.0  0.16588488733395934  0.11216621573112207  0.4617789762778557  1.0000
  O   O5        1.0  0.8541250635316828  0.4746502033667639  0.7313955932622775  1.0000
  O   O6        1.0  0.3048033982049674  0.7927843529032543  0.02501921681687236  1.0000
  O   O7        1.0  0.005114240790135227  0.19590989599237218  0.6141647714539431  1.0000
  O   O8        1.0  0.5762148699213867  0.9708561755251139  0.04446685600851197  1.0000
  O   O9        1.0  0.10755726767820306  0.9915595514612505  0.20219993418140803  1.0000
  O   O10       1.0  0.08131045194932085  0.4314593904709909  0.7869452359736897  1.0000
  O   O11       1.0  0.15450244664680213  0.21611764730187133  0.4608210764126852  1.0000
  O   O12       1.0  0.4064663758035749  0.3664378796238452  0.31885270483326167  1.0000
  O   O13       1.0  0.1951129405933898  0.021563636022619903  0.5096468179253861  1.0000
  O   O14       1.0  0.7171832245003316  0.36713016079738736  0.5240750484226737  1.0000
  O   O15       1.0  0.573757553647738  0.27548413211479783  0.07101571722887456  1.0000
  O   O16       1.0  0.1407025803346187  0.16984493634663522  0.5399976244661957  1.0000
  O   O17       1.0  0.009984389878809452  0.757707636221312  0.9692828824190656  1.0000
  O   O18       1.0  0.8456866075357539  0.398731922643492  0.38500083494000137  1.0000
  O   O19       1.0  0.5564144099480473  0.7815989735245239  0.4643573859066237  1.0000
  O   O20       1.0  0.5230236070929095  0.740687580750091  0.2796979882987216  1.0000
  O   O21       1.0  0.3276154236664297  0.6681618666043505  0.6056673815473914  1.0000
  O   O22       1.0  0.007982964627444744  0.1669583945767954  0.3167975638061762  1.0000
  O   O23       1.0  0.07025683863321319  0.09294215575482667  0.08663329349656124  1.0000
  O   O24       1.0  0.10571526474086568  0.10263091806700686  0.33203848800621927  1.0000
data_image95
_chemical_formula_structural       O24
_chemical_formula_sum              "O24"
_cell_length_a       6.65259782
_cell_length_b       6.76810209
_cell_length_c       7.45043691
_cell_angle_alpha    90.0
_cell_angle_beta     90.0
_cell_angle_gamma    90.0

_space_group_name_H-M_alt    "P 1"
_space_group_IT_number       1

loop_
  _space_group_symop_operation_xyz
  'x, y, z'

loop_
  _atom_site_type_symbol
  _atom_site_label
  _atom_site_symmetry_multiplicity
  _atom_site_fract_x
  _atom_site_fract_y
  _atom_site_fract_z
  _atom_site_occupancy
  O   O1        1.0  0.5362082895735512  0.1144847303366987  0.026416154549224302  1.0000
  O   O2        1.0  0.7840421297587454  0.5195700619224226  0.3877393917791778  1.0000
  O   O3        1.0  0.45499430724885315  0.4331568278139457  0.9851610296173021  1.0000
  O   O4        1.0  0.7656330169556895  0.5373958321215468  0.3901289944187738  1.0000
  O   O5        1.0  0.7298820980504388  0.44055758079048246  0.9952296237170231  1.0000
  O   O6        1.0  0.5340808324981481  0.031061713001690805  0.8541176617145538  1.0000
  O   O7        1.0  0.052460200677160174  0.7733742326381616  0.4280511254983139  1.0000
  O   O8        1.0  0.196925424701476  0.29868985735811293  0.5188927269991837  1.0000
  O   O9        1.0  0.7320420231408207  0.6962215442908928  0.735289586300496  1.0000
  O   O10       1.0  0.26831770217904705  0.573222969454946  0.09958049788838252  1.0000
  O   O11       1.0  0.2812199163599871  0.8188748271786608  0.879473784007132  1.0000
  O   O12       1.0  0.5925781216938049  0.6435475561302155  0.09561769559513777  1.0000
  O   O13       1.0  0.20276780384301674  0.9052533920621499  0.6109944774070755  1.0000
  O   O14       1.0  0.9088388240998029  0.523148160224082  0.3911029322189279  1.0000
  O   O15       1.0  0.5872119781561196  0.14531543827615678  0.9299135168548673  1.0000
  O   O16       1.0  0.539025355130434  0.8305154901463538  0.849820151925087  1.0000
  O   O17       1.0  0.3508695906493813  0.9734043306671083  0.40702996928303037  1.0000
  O   O18       1.0  0.8832561669696588  0.6339795823732857  0.48664556513540447  1.0000
  O   O19       1.0  0.6101414696313441  0.8037862926430535  0.4092909611063078  1.0000
  O   O20       1.0  0.7252486057113856  0.15690050716511905  0.0642983460566029  1.0000
  O   O21       1.0  0.6530109050363535  0.012671386415604502  0.6158156060846522  1.0000
  O   O22       1.0  0.14334828965365887  0.652417867560871  0.7514379839412868  1.0000
  O   O23       1.0  0.5944850636878982  0.017231974363312474  0.20895033360284287  1.0000
  O   O24       1.0  0.873412185930647  0.4652177531461348  0.8790011195233092  1.0000
data_image96
_chemical_formula_structural       O24
_chemical_formula_sum              "O24"
_cell_length_a       6.65259782
_cell_length_b       6.76810209
_cell_length_c       7.45043691
_cell_angle_alpha    90.0
_cell_angle_beta     90.0
_cell_angle_gamma    90.0

_space_group_name_H-M_alt    "P 1"
_space_group_IT_number       1

loop_
  _space_group_symop_operation_xyz
  'x, y, z'

loop_
  _atom_site_type_symbol
  _atom_site_label
  _atom_site_symmetry_multiplicity
  _atom_site_fract_x
  _atom_site_fract_y
  _atom_site_fract_z
  _atom_site_occupancy
  O   O1        1.0  0.3402567444863962  0.3472856554290047  0.3319580473762471  1.0000
  O   O2        1.0  0.9676922809449024  0.831094281791593  0.6199007036047988  1.0000
  O   O3        1.0  0.09676374366972595  0.42837783764116466  0.9872552454471588  1.0000
  O   O4        1.0  0.6406592652856489  0.593227099179785  0.1492261063249316  1.0000
  O   O5        1.0  0.48424299366160994  0.7109802394115832  0.17943438683869317  1.0000
  O   O6        1.0  0.32723057246766984  0.6440002209274098  0.12847071629948914  1.0000
  O   O7        1.0  0.5211531400345848  0.5428509120247327  0.6834921640838729  1.0000
  O   O8        1.0  0.16061283057933906  0.3782540491083637  0.08342660746711772  1.0000
  O   O9        1.0  0.017688637293758802  0.42542099532147404  0.006167336410726421  1.0000
  O   O10       1.0  0.5191076491610147  0.5468022183922585  0.728113718534587  1.0000
  O   O11       1.0  0.8963756104349159  0.9988017820869572  0.6711318488232791  1.0000
  O   O12       1.0  0.3038211226230487  0.8313688482157886  0.8037469115806744  1.0000
  O   O13       1.0  0.8174449245561846  0.2701882882975042  0.1654788866871968  1.0000
  O   O14       1.0  0.9038313544151606  0.7226289354730397  0.17737496859626845  1.0000
  O   O15       1.0  0.5405414095148444  0.9385504540987313  0.8730284778866917  1.0000
  O   O16       1.0  0.6611622837372124  0.49029981810599566  0.7610680609941483  1.0000
  O   O17       1.0  0.5348670737585053  0.38597296469379216  0.8849573017068906  1.0000
  O   O18       1.0  0.7744809601426823  0.8976214556314517  0.9593812854145654  1.0000
  O   O19       1.0  0.5714343549916521  0.2843670128204394  0.46634888945845887  1.0000
  O   O20       1.0  0.36721729522105306  0.617819711798802  0.8496228038566187  1.0000
  O   O21       1.0  0.07775226265948731  0.14837608544621617  0.36237401189282537  1.0000
  O   O22       1.0  0.9956054063513875  0.5972393442643806  0.45732442243024707  1.0000
  O   O23       1.0  0.9165316862054169  0.15357239593777194  0.0761160600814037  1.0000
  O   O24       1.0  0.5635267122415826  0.21489930446114158  0.5946002894779667  1.0000
data_image97
_chemical_formula_structural       O24
_chemical_formula_sum              "O24"
_cell_length_a       6.65259782
_cell_length_b       6.76810209
_cell_length_c       7.45043691
_cell_angle_alpha    90.0
_cell_angle_beta     90.0
_cell_angle_gamma    90.0

_space_group_name_H-M_alt    "P 1"
_space_group_IT_number       1

loop_
  _space_group_symop_operation_xyz
  'x, y, z'

loop_
  _atom_site_type_symbol
  _atom_site_label
  _atom_site_symmetry_multiplicity
  _atom_site_fract_x
  _atom_site_fract_y
  _atom_site_fract_z
  _atom_site_occupancy
  O   O1        1.0  0.7383786808240984  0.33020326602854766  0.5380872558162082  1.0000
  O   O2        1.0  0.8951435005583335  0.7843949992529815  0.8985971535439603  1.0000
  O   O3        1.0  0.7782941566547379  0.9436414869269356  0.6453448322135955  1.0000
  O   O4        1.0  0.0603411421761848  0.32006027761963196  0.722275632648234  1.0000
  O   O5        1.0  0.4325142805901123  0.3964066487387754  0.8819565922603942  1.0000
  O   O6        1.0  0.8051798349479213  0.9764195561874658  0.640865953406319  1.0000
  O   O7        1.0  0.37296119231177727  0.4212699184427038  0.6713974184604012  1.0000
  O   O8        1.0  0.07553313609969337  0.24615414184518158  0.40220291264995467  1.0000
  O   O9        1.0  0.947574838741275  0.808011001048726  0.7109940888622077  1.0000
  O   O10       1.0  0.9080324029710027  0.438056072947802  0.5128966870252043  1.0000
  O   O11       1.0  0.19705816096393391  0.9338771240436472  0.59194390848279  1.0000
  O   O12       1.0  0.8410418204730377  0.7501156073994935  0.7897259155288339  1.0000
  O   O13       1.0  0.6822227452794323  0.004777805064804852  0.21663701394572854  1.0000
  O   O14       1.0  0.41733976828254526  0.023273263621376827  0.31291854369919747  1.0000
  O   O15       1.0  0.9172451862250455  0.21055680932477117  0.8433900086674839  1.0000
  O   O16       1.0  0.1505453661084175  0.8471206189133227  0.8988777494523674  1.0000
  O   O17       1.0  0.2212256956845522  0.5271814223378897  0.38340196017816197  1.0000
  O   O18       1.0  0.05502546612115111  0.9828243424126413  0.15107384999282658  1.0000
  O   O19       1.0  0.712591903982684  0.22961948395823129  0.25909165482153185  1.0000
  O   O20       1.0  0.4921199985546991  0.05062438308959827  0.037105791619978845  1.0000
  O   O21       1.0  0.42978390150528867  0.37840510660316795  0.43132516770856455  1.0000
  O   O22       1.0  0.04483965365216136  0.1412843675352633  0.5611242004670203  1.0000
  O   O23       1.0  0.2417145215003984  0.2390634164983112  0.5524779994448181  1.0000
  O   O24       1.0  0.5832929406315088  0.016658686457958538  0.3462869409704581  1.0000
data_image98
_chemical_formula_structural       O24
_chemical_formula_sum              "O24"
_cell_length_a       6.65259782
_cell_length_b       6.76810209
_cell_length_c       7.45043691
_cell_angle_alpha    90.0
_cell_angle_beta     90.0
_cell_angle_gamma    90.0

_space_group_name_H-M_alt    "P 1"
_space_group_IT_number       1

loop_
  _space_group_symop_operation_xyz
  'x, y, z'

loop_
  _atom_site_type_symbol
  _atom_site_label
  _atom_site_symmetry_multiplicity
  _atom_site_fract_x
  _atom_site_fract_y
  _atom_site_fract_z
  _atom_site_occupancy
  O   O1        1.0  0.05278834150158218  0.8913432362605818  0.6388636290212162  1.0000
  O   O2        1.0  0.1615563889645273  0.15912882779957727  0.9277110180992167  1.0000
  O   O3        1.0  0.9824040511157364  0.2858853457728401  0.5648333092685789  1.0000
  O   O4        1.0  0.9526946146506816  0.8549655168317258  0.14552649253164418  1.0000
  O   O5        1.0  0.2766749131733377  0.6467028413026128  0.8897628816484939  1.0000
  O   O6        1.0  0.25105695810634643  0.9146672253264114  0.47022410784848034  1.0000
  O   O7        1.0  0.9093911444651894  0.09470674628391862  0.7715909478938556  1.0000
  O   O8        1.0  0.982658577930124  0.7513694625231437  0.5806423224203172  1.0000
  O   O9        1.0  0.6535322605559486  0.3727588316833135  0.8755675449356204  1.0000
  O   O10       1.0  0.1593861787418973  0.9552341822127346  0.9255056014226284  1.0000
  O   O11       1.0  0.7078623577253893  0.4919369023118634  0.15268237073905766  1.0000
  O   O12       1.0  0.4437246227171272  0.47693099407479167  0.9628363024676219  1.0000
  O   O13       1.0  0.2497412771481322  0.525044146925211  0.26699858030769974  1.0000
  O   O14       1.0  0.052566431935701985  0.7539592827379238  0.6810262790240813  1.0000
  O   O15       1.0  0.19498636719072238  0.43240034650079906  0.40330448583699763  1.0000
  O   O16       1.0  0.9318106509745121  0.10633154236711562  0.9830996019300073  1.0000
  O   O17       1.0  0.2936380367609672  0.8118438451783732  0.974635133810807  1.0000
  O   O18       1.0  0.487552035076078  0.31299429302453063  0.09152237203670666  1.0000
  O   O19       1.0  0.33248518925393  0.9477984009427018  0.37291518214624375  1.0000
  O   O20       1.0  0.25577221740968525  0.6763139158720151  0.8346084166551009  1.0000
  O   O21       1.0  0.5172830758965574  0.8827188170980662  0.32535405177623034  1.0000
  O   O22       1.0  0.9578496757894754  0.585650208638981  0.3635686323978007  1.0000
  O   O23       1.0  0.06066144854412414  0.5210632040543715  0.26621916789736133  1.0000
  O   O24       1.0  0.1319235136033967  0.5482516289775958  0.5310007479274645  1.0000
data_image99
_chemical_formula_structural       O24
_chemical_formula_sum              "O24"
_cell_length_a       6.65259782
_cell_length_b       6.76810209
_cell_length_c       7.45043691
_cell_angle_alpha    90.0
_cell_angle_beta     90.0
_cell_angle_gamma    90.0

_space_group_name_H-M_alt    "P 1"
_space_group_IT_number       1

loop_
  _space_group_symop_operation_xyz
  'x, y, z'

loop_
  _atom_site_type_symbol
  _atom_site_label
  _atom_site_symmetry_multiplicity
  _atom_site_fract_x
  _atom_site_fract_y
  _atom_site_fract_z
  _atom_site_occupancy
  O   O1        1.0  0.2881663400257821  0.14634887868305668  0.5986243397055659  1.0000
  O   O2        1.0  0.45678378545926535  0.7489224878372625  0.74241973462631  1.0000
  O   O3        1.0  0.3172148837475106  0.13734763429965824  0.1853789690649137  1.0000
  O   O4        1.0  0.4089308175316546  0.5698267696425319  0.5467933965555858  1.0000
  O   O5        1.0  0.23391992736287648  0.0553593861986883  0.5217215812590439  1.0000
  O   O6        1.0  0.10279555676970631  0.06011301057878882  0.624088226351887  1.0000
  O   O7        1.0  0.008771265769610181  0.08981922792736441  0.9185596661300224  1.0000
  O   O8        1.0  0.17129472533270018  0.8819212561938912  0.3145225200933055  1.0000
  O   O9        1.0  0.34296293838269776  0.7923313680075807  0.32662130615790375  1.0000
  O   O10       1.0  0.9083755434894556  0.824388273031218  0.7150842563423794  1.0000
  O   O11       1.0  0.18024211004376411  0.9198735207610298  0.4112479011528194  1.0000
  O   O12       1.0  0.09023403294850141  0.17419520299881697  0.9689978751121089  1.0000
  O   O13       1.0  0.14788648042303976  0.32980404095724225  0.5210634813411161  1.0000
  O   O14       1.0  0.8810918887611479  0.8260183339880314  0.28217474214034155  1.0000
  O   O15       1.0  0.8493948593968526  0.1551177790388465  0.7174163802992553  1.0000
  O   O16       1.0  0.1565932787489146  0.10399579780641943  0.35403086012229323  1.0000
  O   O17       1.0  0.3420824877684936  0.1498400557320565  0.612616308266297  1.0000
  O   O18       1.0  0.6302341088739922  0.4680253188707866  0.758791369094979  1.0000
  O   O19       1.0  0.754693323669926  0.9977973163768183  0.4251049240119755  1.0000
  O   O20       1.0  0.8348766976268962  0.35206125414697453  0.18245240463875234  1.0000
  O   O21       1.0  0.49632985137577634  0.7037785740685649  0.6671501237433404  1.0000
  O   O22       1.0  0.8682335559278727  0.7320313050877303  0.4858568962663412  1.0000
  O   O23       1.0  0.6391454017430078  0.802070420045311  0.859379258894478  1.0000
  O   O24       1.0  0.8897464960464276  0.9790125434446963  0.2599026634125039  1.0000
data_image100
_chemical_formula_structural       O24
_chemical_formula_sum              "O24"
_cell_length_a       6.65259782
_cell_length_b       6.76810209
_cell_length_c       7.45043691
_cell_angle_alpha    90.0
_cell_angle_beta     90.0
_cell_angle_gamma    90.0

_space_group_name_H-M_alt    "P 1"
_space_group_IT_number       1

loop_
  _space_group_symop_operation_xyz
  'x, y, z'

loop_
  _atom_site_type_symbol
  _atom_site_label
  _atom_site_symmetry_multiplicity
  _atom_site_fract_x
  _atom_site_fract_y
  _atom_site_fract_z
  _atom_site_occupancy
  O   O1        1.0  0.8960672191624326  0.21861327145597897  0.9450776054873131  1.0000
  O   O2        1.0  0.31355386349605396  0.6608790270984173  0.2984019446885213  1.0000
  O   O3        1.0  0.5844448857242242  0.6776130214566365  0.9059907216578722  1.0000
  O   O4        1.0  0.30236238944053184  0.5581723644863814  0.9659449067548849  1.0000
  O   O5        1.0  0.4321426544775022  0.7543617142364383  0.7161730902444106  1.0000
  O   O6        1.0  0.5369152503553778  0.22544138552621007  0.9352660709992051  1.0000
  O   O7        1.0  0.7529998006211827  0.28417094907490537  0.14213708618808596  1.0000
  O   O8        1.0  0.2939408393940539  0.7311943851527758  0.34720662869221997  1.0000
  O   O9        1.0  0.6638659732343513  0.020004518912173808  0.6628508949943352  1.0000
  O   O10       1.0  0.014004999384269468  0.8221629507315811  0.2136122244701255  1.0000
  O   O11       1.0  0.41776506637688726  0.1902800351381302  0.0281588431680575  1.0000
  O   O12       1.0  0.051684834295883775  0.8118309853598475  0.5762331023579463  1.0000
  O   O13       1.0  0.7087015893921489  0.41047439898829907  0.34265875455457717  1.0000
  O   O14       1.0  0.006779563831514679  0.27060383604839444  0.45214442716678604  1.0000
  O   O15       1.0  0.4208329346147366  0.4570312884170562  0.8045730111189187  1.0000
  O   O16       1.0  0.6820806709583849  0.19624499254859984  0.7439582413062453  1.0000
  O   O17       1.0  0.10458644531900063  0.5289755788398907  0.5798064361151773  1.0000
  O   O18       1.0  0.6099191795801744  0.09191497304709628  0.4741995598305948  1.0000
  O   O19       1.0  0.38994749707308074  0.16928929011919536  0.8919818427530117  1.0000
  O   O20       1.0  0.6738548331195489  0.9094247836619616  0.6196848232066259  1.0000
  O   O21       1.0  0.2648615854050149  0.5424161100527272  0.13887698156759143  1.0000
  O   O22       1.0  0.5083931381814182  0.897202605381608  0.330973609816283  1.0000
  O   O23       1.0  0.1611725635448238  0.48556263924592713  0.7899629362800624  1.0000
  O   O24       1.0  0.20912264939397573  0.08613462521316251  0.09412547852844  1.0000
data_image101
_chemical_formula_structural       O24
_chemical_formula_sum              "O24"
_cell_length_a       6.65259782
_cell_length_b       6.76810209
_cell_length_c       7.45043691
_cell_angle_alpha    90.0
_cell_angle_beta     90.0
_cell_angle_gamma    90.0

_space_group_name_H-M_alt    "P 1"
_space_group_IT_number       1

loop_
  _space_group_symop_operation_xyz
  'x, y, z'

loop_
  _atom_site_type_symbol
  _atom_site_label
  _atom_site_symmetry_multiplicity
  _atom_site_fract_x
  _atom_site_fract_y
  _atom_site_fract_z
  _atom_site_occupancy
  O   O1        1.0  0.5883814261324005  0.18308915196394082  0.5789933900232427  1.0000
  O   O2        1.0  0.1755534576732316  0.9215601092437282  0.32296399731421843  1.0000
  O   O3        1.0  0.6011124505894259  0.21212522871792316  0.9908886473858729  1.0000
  O   O4        1.0  0.06072003085864708  0.1949178788345307  0.8104723069991451  1.0000
  O   O5        1.0  0.5583180083413026  0.3726332179212477  0.025773218018002808  1.0000
  O   O6        1.0  0.9289073887048289  0.7605887932004407  0.9131301583256572  1.0000
  O   O7        1.0  0.1434295100843883  0.25847208104096353  0.2255841105570653  1.0000
  O   O8        1.0  0.9299017807134078  0.7738221626495942  0.28541131132806186  1.0000
  O   O9        1.0  0.8110637317513465  0.19397112961451057  0.6436877799860667  1.0000
  O   O10       1.0  0.05314497963968279  0.963411265402101  0.4614487114304211  1.0000
  O   O11       1.0  0.83944856969174  0.7003092544327956  0.11929758207406849  1.0000
  O   O12       1.0  0.5799123590113595  0.6935836779884994  0.7908431034302339  1.0000
  O   O13       1.0  0.06803494083578698  0.21915701357647777  0.14876518782693893  1.0000
  O   O14       1.0  0.2704641194359283  0.5821400435233954  0.3835917880060151  1.0000
  O   O15       1.0  0.7768688947544433  0.6165984896942973  0.5458512771874666  1.0000
  O   O16       1.0  0.7602540734224021  0.40768982423469424  0.13638586923480034  1.0000
  O   O17       1.0  0.9604098025010899  0.06808130745775998  0.5210239714215277  1.0000
  O   O18       1.0  0.13606273013283499  0.9066681755357422  0.6485662288032472  1.0000
  O   O19       1.0  0.0034018063274743326  0.8892937649216037  0.14086170512018725  1.0000
  O   O20       1.0  0.6989102045772597  0.2884307795902714  0.6269134760368615  1.0000
  O   O21       1.0  0.2842267121304758  0.8519973604707047  0.5461353001883253  1.0000
  O   O22       1.0  0.04600100824609399  0.10399196145590395  0.629179650451988  1.0000
  O   O23       1.0  0.64786441346223  0.13799076004170274  0.9307863684516633  1.0000
  O   O24       1.0  0.07760806527221575  0.6994763183538453  0.5734441252425313  1.0000
data_image102
_chemical_formula_structural       O24
_chemical_formula_sum              "O24"
_cell_length_a       6.65259782
_cell_length_b       6.76810209
_cell_length_c       7.45043691
_cell_angle_alpha    90.0
_cell_angle_beta     90.0
_cell_angle_gamma    90.0

_space_group_name_H-M_alt    "P 1"
_space_group_IT_number       1

loop_
  _space_group_symop_operation_xyz
  'x, y, z'

loop_
  _atom_site_type_symbol
  _atom_site_label
  _atom_site_symmetry_multiplicity
  _atom_site_fract_x
  _atom_site_fract_y
  _atom_site_fract_z
  _atom_site_occupancy
  O   O1        1.0  0.4925323020406722  0.8493225644051563  0.4995921866502613  1.0000
  O   O2        1.0  0.015661110235669184  0.2946927100419998  0.9351028788660187  1.0000
  O   O3        1.0  0.9210229258751497  0.09884711867198348  0.5911742636235431  1.0000
  O   O4        1.0  0.31407346967898775  0.43951272312551737  0.43409935900126584  1.0000
  O   O5        1.0  0.7658245900529437  0.4956429526937427  0.9947485822194722  1.0000
  O   O6        1.0  0.7583731700433418  0.420934209250845  0.2437135260552168  1.0000
  O   O7        1.0  0.05739485907542985  0.3938171088520903  0.4059953182168101  1.0000
  O   O8        1.0  0.0012110136012779549  0.7273923170869239  0.7697010380506981  1.0000
  O   O9        1.0  0.9780580951555748  0.7051187008910347  0.1434234031185042  1.0000
  O   O10       1.0  0.8490209746898927  0.7457876670814585  0.571942944690818  1.0000
  O   O11       1.0  0.24925176211399958  0.0925847572798375  0.006431113462895155  1.0000
  O   O12       1.0  0.7653922191821039  0.795101820724085  0.23648326797410846  1.0000
  O   O13       1.0  0.6625109843880637  0.016702999477274716  0.46859340695664287  1.0000
  O   O14       1.0  0.674335656061885  0.17499714039149694  0.044161185272969306  1.0000
  O   O15       1.0  0.7944123255438171  0.7355506729800254  0.17254079249687493  1.0000
  O   O16       1.0  0.7510554692707956  0.18755055958172306  0.6948952958919108  1.0000
  O   O17       1.0  0.4510279545211233  0.25354823004454374  0.8125187286204891  1.0000
  O   O18       1.0  0.7922203135894961  0.37483132211491466  0.8746989247738384  1.0000
  O   O19       1.0  0.6582399879725926  0.0831068359548226  0.8667387288296595  1.0000
  O   O20       1.0  0.5570441054878756  0.5419423074636143  0.1422616990748793  1.0000
  O   O21       1.0  0.6534150423831306  0.550230925087817  0.6587264499394223  1.0000
  O   O22       1.0  0.417771692853421  0.3618301742244512  0.2462038602679968  1.0000
  O   O23       1.0  0.97984101853217  0.8831461560898788  0.9085735067492351  1.0000
  O   O24       1.0  0.44030940189259127  0.7778077986149583  0.27767869748640805  1.0000
data_image103
_chemical_formula_structural       O24
_chemical_formula_sum              "O24"
_cell_length_a       6.65259782
_cell_length_b       6.76810209
_cell_length_c       7.45043691
_cell_angle_alpha    90.0
_cell_angle_beta     90.0
_cell_angle_gamma    90.0

_space_group_name_H-M_alt    "P 1"
_space_group_IT_number       1

loop_
  _space_group_symop_operation_xyz
  'x, y, z'

loop_
  _atom_site_type_symbol
  _atom_site_label
  _atom_site_symmetry_multiplicity
  _atom_site_fract_x
  _atom_site_fract_y
  _atom_site_fract_z
  _atom_site_occupancy
  O   O1        1.0  0.35281066953393747  0.5577727522322675  0.49437282914004754  1.0000
  O   O2        1.0  0.9965336749446578  0.7213894324377179  0.11516239590127952  1.0000
  O   O3        1.0  0.4101728063542396  0.4804922331823036  0.9691521327476948  1.0000
  O   O4        1.0  0.5618990680668503  0.47719989879988134  0.6699816876644036  1.0000
  O   O5        1.0  0.18003715835948242  0.01342455817211885  0.151486655959161  1.0000
  O   O6        1.0  0.07331050769425929  0.43927780189551413  0.13688309607096016  1.0000
  O   O7        1.0  0.5690245712394244  0.5562284753250424  0.04798326889795135  1.0000
  O   O8        1.0  0.5569549307110719  0.9315224863821641  0.6530778764281422  1.0000
  O   O9        1.0  0.8529278936039191  0.7067571263760328  0.9853698552760761  1.0000
  O   O10       1.0  0.5826549241403427  0.6853783861151896  0.5553615853714291  1.0000
  O   O11       1.0  0.72516636736691  0.27478425230947323  0.02723623940255493  1.0000
  O   O12       1.0  0.2082074370700866  0.31129701784811914  0.8987842934438959  1.0000
  O   O13       1.0  0.275045911927009  0.2553451751591638  0.6955807509366423  1.0000
  O   O14       1.0  0.22113521084247623  0.6095916753110941  0.6901137639943045  1.0000
  O   O15       1.0  0.6440053950645961  0.22407273948192596  0.13561173039488494  1.0000
  O   O16       1.0  0.26653983839787543  0.31601229158695787  0.7808434469625354  1.0000
  O   O17       1.0  0.23556316399481148  0.39380155212711543  0.356305283101392  1.0000
  O   O18       1.0  0.6551957462797873  0.5633543147705495  0.732091139361728  1.0000
  O   O19       1.0  0.9966261342406142  0.22143519815290347  0.3588941732305102  1.0000
  O   O20       1.0  0.598129951977171  0.8408404322981369  0.28328832890838385  1.0000
  O   O21       1.0  0.2505856535572093  0.9571440101135522  0.42207296000560746  1.0000
  O   O22       1.0  0.9006994515657425  0.8548138985643163  0.8178025758825243  1.0000
  O   O23       1.0  0.07425470257294364  0.07340403708349186  0.8860361120314337  1.0000
  O   O24       1.0  0.8125192109728232  0.5346600480916095  0.13650698692072183  1.0000
data_image104
_chemical_formula_structural       O24
_chemical_formula_sum              "O24"
_cell_length_a       6.65259782
_cell_length_b       6.76810209
_cell_length_c       7.45043691
_cell_angle_alpha    90.0
_cell_angle_beta     90.0
_cell_angle_gamma    90.0

_space_group_name_H-M_alt    "P 1"
_space_group_IT_number       1

loop_
  _space_group_symop_operation_xyz
  'x, y, z'

loop_
  _atom_site_type_symbol
  _atom_site_label
  _atom_site_symmetry_multiplicity
  _atom_site_fract_x
  _atom_site_fract_y
  _atom_site_fract_z
  _atom_site_occupancy
  O   O1        1.0  0.28665045614616247  0.26659868060960434  0.7946254490379943  1.0000
  O   O2        1.0  0.06911691521236207  0.9467688390286639  0.05050599554670043  1.0000
  O   O3        1.0  0.22419819480273873  0.36636308894958347  0.4352404907112941  1.0000
  O   O4        1.0  0.473136101878481  0.6499243635917082  0.9263098882074701  1.0000
  O   O5        1.0  0.06120023340190528  0.7351445066160522  0.20914931647712365  1.0000
  O   O6        1.0  0.2889114801073447  0.19643265975173563  0.9724868007469922  1.0000
  O   O7        1.0  0.7406227066894644  0.39122903658426367  0.8044926791735634  1.0000
  O   O8        1.0  0.6012755146075506  0.8367470267694443  0.3383973213858553  1.0000
  O   O9        1.0  0.7848505894799018  0.24844221370585728  0.9958681721327594  1.0000
  O   O10       1.0  0.027055505229782284  0.1683161445253063  0.050558948365505785  1.0000
  O   O11       1.0  0.9331680974573828  0.3159594026510604  0.35056957928463817  1.0000
  O   O12       1.0  0.8219260926125571  0.9186329829972237  0.5218036019941792  1.0000
  O   O13       1.0  0.18733794501167722  0.689968332531862  0.20152421516831964  1.0000
  O   O14       1.0  0.4182892811077181  0.4514008349215146  0.7664173542289063  1.0000
  O   O15       1.0  0.39789883175399154  0.46536204777657986  0.695004706736654  1.0000
  O   O16       1.0  0.3316812915727496  0.38967629824765027  0.29672742914408445  1.0000
  O   O17       1.0  0.7299040083307773  0.8177680990193039  0.16126529937901068  1.0000
  O   O18       1.0  0.016862589633092284  0.8688324354588985  0.007326425577048212  1.0000
  O   O19       1.0  0.1686761363489495  0.2692480397527106  0.9554195661912672  1.0000
  O   O20       1.0  0.5093419681070372  0.9479852246586233  0.9369415617547929  1.0000
  O   O21       1.0  0.5412210899667116  0.5173112445045263  0.7017356837750413  1.0000
  O   O22       1.0  0.6153353434056044  0.9618554002372548  0.06992063345387578  1.0000
  O   O23       1.0  0.4218467177997809  0.4264238529769955  0.1103751037735492  1.0000
  O   O24       1.0  0.3494932500179857  0.1536090867666644  0.6473328514257446  1.0000
data_image105
_chemical_formula_structural       O24
_chemical_formula_sum              "O24"
_cell_length_a       6.65259782
_cell_length_b       6.76810209
_cell_length_c       7.45043691
_cell_angle_alpha    90.0
_cell_angle_beta     90.0
_cell_angle_gamma    90.0

_space_group_name_H-M_alt    "P 1"
_space_group_IT_number       1

loop_
  _space_group_symop_operation_xyz
  'x, y, z'

loop_
  _atom_site_type_symbol
  _atom_site_label
  _atom_site_symmetry_multiplicity
  _atom_site_fract_x
  _atom_site_fract_y
  _atom_site_fract_z
  _atom_site_occupancy
  O   O1        1.0  0.023396241456794087  0.38200528647575993  0.2748131877015112  1.0000
  O   O2        1.0  0.04744592134375125  0.8393706807401031  0.9560299706063233  1.0000
  O   O3        1.0  0.6523657678626478  0.7890630128094926  0.07040773413609713  1.0000
  O   O4        1.0  0.4892815397470258  0.2228867009980604  0.13739294534025248  1.0000
  O   O5        1.0  0.29869650927139446  0.9036950399313355  0.5319737743702717  1.0000
  O   O6        1.0  0.28355721838306636  0.9648716292576864  0.6392223422881216  1.0000
  O   O7        1.0  0.991579210589407  0.6263515134633053  0.04818151960353134  1.0000
  O   O8        1.0  0.9800198569137137  0.8219935998204164  0.5474938538682181  1.0000
  O   O9        1.0  0.7373656548879808  0.6247646057017846  0.6694610924896551  1.0000
  O   O10       1.0  0.31346472600489506  0.613925938232569  0.18197549117030576  1.0000
  O   O11       1.0  0.37549575947923586  0.7969947838573717  0.7449933616444468  1.0000
  O   O12       1.0  0.9912302904995158  0.531492967158556  0.16175804974045604  1.0000
  O   O13       1.0  0.6661275490769185  0.6073517897166312  0.8595351773547009  1.0000
  O   O14       1.0  0.33655118079695967  0.7954273824288975  0.0007126407872419804  1.0000
  O   O15       1.0  0.18149240349885076  0.39107142318971455  0.4692905372940004  1.0000
  O   O16       1.0  0.4385948877315968  0.584749664994888  0.5371063626371324  1.0000
  O   O17       1.0  0.16522992425598204  0.4438520083203912  0.5867070070671616  1.0000
  O   O18       1.0  0.11748845725378487  0.24915574403712526  0.17378097638720647  1.0000
  O   O19       1.0  0.36094227055218653  0.24281262373551726  0.8976958736311644  1.0000
  O   O20       1.0  0.6017149080289528  0.8726501557102893  0.1655996263725683  1.0000
  O   O21       1.0  0.5471822489780607  0.7514960949774832  0.986714125785511  1.0000
  O   O22       1.0  0.4338189009577036  0.7879951695213094  0.7384715620428324  1.0000
  O   O23       1.0  0.37991184600105044  0.6529771272460039  0.9910487776505761  1.0000
  O   O24       1.0  0.5870470727677457  0.5030449540790869  0.629633043310605  1.0000
data_image106
_chemical_formula_structural       O24
_chemical_formula_sum              "O24"
_cell_length_a       6.65259782
_cell_length_b       6.76810209
_cell_length_c       7.45043691
_cell_angle_alpha    90.0
_cell_angle_beta     90.0
_cell_angle_gamma    90.0

_space_group_name_H-M_alt    "P 1"
_space_group_IT_number       1

loop_
  _space_group_symop_operation_xyz
  'x, y, z'

loop_
  _atom_site_type_symbol
  _atom_site_label
  _atom_site_symmetry_multiplicity
  _atom_site_fract_x
  _atom_site_fract_y
  _atom_site_fract_z
  _atom_site_occupancy
  O   O1        1.0  0.7812965838820674  0.4089711663982598  0.3753287518484285  1.0000
  O   O2        1.0  0.852806860137207  0.5090950090670958  0.3763791000819765  1.0000
  O   O3        1.0  0.03832442464772612  0.17205035872757435  0.00042835366912186146  1.0000
  O   O4        1.0  0.20961933819853584  0.02378095395397395  0.6073347069468582  1.0000
  O   O5        1.0  0.587952276080614  0.47422233772522304  0.20325002406025305  1.0000
  O   O6        1.0  0.551812223624438  0.22916172503028065  0.6787704015150666  1.0000
  O   O7        1.0  0.25039426506555174  0.2669966161483899  0.33714913654330303  1.0000
  O   O8        1.0  0.5768929455953185  0.6475664328318089  0.8185489054158097  1.0000
  O   O9        1.0  0.8187818732621963  0.8170382961106952  0.5832770488050301  1.0000
  O   O10       1.0  0.6765195097286778  0.17990841349819675  0.931870446598623  1.0000
  O   O11       1.0  0.6784991531749256  0.7766677468025591  0.4281277402769774  1.0000
  O   O12       1.0  0.9939163208473474  0.6347003220580518  0.9583484226604924  1.0000
  O   O13       1.0  0.31802674643404316  0.1842750363284722  0.8364246675046161  1.0000
  O   O14       1.0  0.675635349991353  0.8913916276069358  0.41797167831100523  1.0000
  O   O15       1.0  0.42110746819525957  0.5184116009622812  0.23941705701872706  1.0000
  O   O16       1.0  0.9287686655297875  0.996127767895814  0.12035518186166883  1.0000
  O   O17       1.0  0.15208354394417256  0.49065776623319834  0.719377056680969  1.0000
  O   O18       1.0  0.3661605332454201  0.18256630195537582  0.9640790746198036  1.0000
  O   O19       1.0  0.8740669728749708  0.3718509935133625  0.34542010369477794  1.0000
  O   O20       1.0  0.9436336871003732  0.5874143376131542  0.4115710591431707  1.0000
  O   O21       1.0  0.028544047541799955  0.35059753042878583  0.2741458365926519  1.0000
  O   O22       1.0  0.7170767760835588  0.1962313811527565  0.779599198140204  1.0000
  O   O23       1.0  0.49274087682715617  0.14009483815061685  0.8605568299099104  1.0000
  O   O24       1.0  0.06533991900505498  0.9502213250889326  0.7322682108497247  1.0000
data_image107
_chemical_formula_structural       O24
_chemical_formula_sum              "O24"
_cell_length_a       6.65259782
_cell_length_b       6.76810209
_cell_length_c       7.45043691
_cell_angle_alpha    90.0
_cell_angle_beta     90.0
_cell_angle_gamma    90.0

_space_group_name_H-M_alt    "P 1"
_space_group_IT_number       1

loop_
  _space_group_symop_operation_xyz
  'x, y, z'

loop_
  _atom_site_type_symbol
  _atom_site_label
  _atom_site_symmetry_multiplicity
  _atom_site_fract_x
  _atom_site_fract_y
  _atom_site_fract_z
  _atom_site_occupancy
  O   O1        1.0  0.06584779383410932  0.5773406066145981  0.7541084680560743  1.0000
  O   O2        1.0  0.6378605164209148  0.3932686385815032  0.9116432297159918  1.0000
  O   O3        1.0  0.9447682049358264  0.5019774378743023  0.6104495724430308  1.0000
  O   O4        1.0  0.17697134541595005  0.5125454955268651  0.19222087309753988  1.0000
  O   O5        1.0  0.3506214045919478  0.6869314337527612  0.07349422390689142  1.0000
  O   O6        1.0  0.6142021898413077  0.7926549445837736  0.653322750935331  1.0000
  O   O7        1.0  0.8340990488941316  0.5284037198289298  0.08942613215913298  1.0000
  O   O8        1.0  0.689411945946631  0.8856996186659671  0.9674340447527356  1.0000
  O   O9        1.0  0.8808314886991866  0.9383304254006362  0.658133251738036  1.0000
  O   O10       1.0  0.09950190351355559  0.14113456546328962  0.9660986506496556  1.0000
  O   O11       1.0  0.9754905009176582  0.5111720421118662  0.3658284414559603  1.0000
  O   O12       1.0  0.22837934095878154  0.37832033005543053  0.6269707803148776  1.0000
  O   O13       1.0  0.21034546486043837  0.2774556924123317  0.5704134606057778  1.0000
  O   O14       1.0  0.48144314265664434  0.040784876444377005  0.940258500049822  1.0000
  O   O15       1.0  0.671667056158185  0.6832800910342485  0.6325585250742733  1.0000
  O   O16       1.0  0.9010369386523962  0.7305738709401339  0.8722044308669865  1.0000
  O   O17       1.0  0.0746325051295571  0.6196401156485081  0.8440540637384402  1.0000
  O   O18       1.0  0.23411241681606043  0.7401372652966529  0.09856367122847587  1.0000
  O   O19       1.0  0.42807685094476255  0.10443892306648195  0.20068268512841314  1.0000
  O   O20       1.0  0.9773272848688066  0.809066701651318  0.3443286061519757  1.0000
  O   O21       1.0  0.7524451385252178  0.06758414534851909  0.24465869803680107  1.0000
  O   O22       1.0  0.589099233970046  0.26911447546444833  0.9492069804109633  1.0000
  O   O23       1.0  0.8430594807578018  0.12843510873335617  0.7197586424590554  1.0000
  O   O24       1.0  0.33876914641587064  0.6817093877471052  0.7141803592676297  1.0000
data_image108
_chemical_formula_structural       O24
_chemical_formula_sum              "O24"
_cell_length_a       6.65259782
_cell_length_b       6.76810209
_cell_length_c       7.45043691
_cell_angle_alpha    90.0
_cell_angle_beta     90.0
_cell_angle_gamma    90.0

_space_group_name_H-M_alt    "P 1"
_space_group_IT_number       1

loop_
  _space_group_symop_operation_xyz
  'x, y, z'

loop_
  _atom_site_type_symbol
  _atom_site_label
  _atom_site_symmetry_multiplicity
  _atom_site_fract_x
  _atom_site_fract_y
  _atom_site_fract_z
  _atom_site_occupancy
  O   O1        1.0  0.32982914818421705  0.8442308354133274  0.2917407286440721  1.0000
  O   O2        1.0  0.44995946473500226  0.3501087258919142  0.699899520870531  1.0000
  O   O3        1.0  0.8788770020473748  0.9239292513811961  0.09975017653778195  1.0000
  O   O4        1.0  0.5978378559229895  0.6932674578856677  0.5430254347302252  1.0000
  O   O5        1.0  0.6272880902979523  0.628619826209615  0.9256224304263014  1.0000
  O   O6        1.0  0.5613467638613656  0.5826850169105455  0.07147784531116486  1.0000
  O   O7        1.0  0.18871004844550043  0.06398210435872898  0.15271660531288944  1.0000
  O   O8        1.0  0.24898923035652842  0.2705726470449008  0.49045713614759734  1.0000
  O   O9        1.0  0.6797435815824429  0.32649570879584644  0.9220536255306797  1.0000
  O   O10       1.0  0.05408885551878484  0.32685383839998394  0.07546454598195851  1.0000
  O   O11       1.0  0.7984218208002858  0.7601787823950872  0.9661221553105861  1.0000
  O   O12       1.0  0.9025357833597809  0.7939904301892966  0.6193951705936342  1.0000
  O   O13       1.0  0.9687194034195272  0.6654960617888719  0.8929680689470842  1.0000
  O   O14       1.0  0.8992461344168987  0.08150796379777603  0.5774334615562111  1.0000
  O   O15       1.0  0.5190036949934438  0.9487275695428252  0.3060357423964888  1.0000
  O   O16       1.0  0.30741778505034745  0.2784543422749266  0.7794491674285382  1.0000
  O   O17       1.0  0.3663182356976904  0.6464431500062346  0.5805132591922302  1.0000
  O   O18       1.0  0.07474469170847442  0.2248197349254042  0.9994611529400572  1.0000
  O   O19       1.0  0.16319644416125811  0.3893369107390754  0.7025636031175964  1.0000
  O   O20       1.0  0.28957101854030043  0.5936330108088441  0.18412793951574713  1.0000
  O   O21       1.0  0.6635535864770645  0.5517090049106628  0.027653799566905946  1.0000
  O   O22       1.0  0.7726292544975877  0.5769752260530367  0.2093010568059981  1.0000
  O   O23       1.0  0.6116220011463156  0.5791768908859467  0.8907812705801916  1.0000
  O   O24       1.0  0.04635044647147879  0.8988054651053972  0.9919851057929918  1.0000
data_image109
_chemical_formula_structural       O24
_chemical_formula_sum              "O24"
_cell_length_a       6.65259782
_cell_length_b       6.76810209
_cell_length_c       7.45043691
_cell_angle_alpha    90.0
_cell_angle_beta     90.0
_cell_angle_gamma    90.0

_space_group_name_H-M_alt    "P 1"
_space_group_IT_number       1

loop_
  _space_group_symop_operation_xyz
  'x, y, z'

loop_
  _atom_site_type_symbol
  _atom_site_label
  _atom_site_symmetry_multiplicity
  _atom_site_fract_x
  _atom_site_fract_y
  _atom_site_fract_z
  _atom_site_occupancy
  O   O1        1.0  0.3621069964392518  0.7347521167539526  0.8883324732159963  1.0000
  O   O2        1.0  0.35498704682686366  0.7070900659891777  0.09717739390907809  1.0000
  O   O3        1.0  0.4349300286266953  0.8425046126358211  0.6454071417683735  1.0000
  O   O4        1.0  0.694225046558131  0.1257745383772999  0.6097707372973673  1.0000
  O   O5        1.0  0.8001021357340505  0.1931503753439756  0.2589315516524948  1.0000
  O   O6        1.0  0.8686028781812638  0.5179259453434497  0.030573589960113168  1.0000
  O   O7        1.0  0.6897673401981592  0.3484187686117366  0.10950093866267707  1.0000
  O   O8        1.0  0.0456989136437187  0.4334161435253918  0.4982046875957167  1.0000
  O   O9        1.0  0.3342655637607095  0.5400138121913187  0.3020200481551001  1.0000
  O   O10       1.0  0.8497479769466736  0.4719806114153471  0.8801173894316889  1.0000
  O   O11       1.0  0.7845404530526139  0.9830414361204021  0.3908663468901068  1.0000
  O   O12       1.0  0.6465610427549109  0.36485997145064175  0.7011399799957871  1.0000
  O   O13       1.0  0.8017260902415728  0.8226534816203639  0.9352408134145662  1.0000
  O   O14       1.0  0.885850549711904  0.9338516127318144  0.1408744954096619  1.0000
  O   O15       1.0  0.9994700406678021  0.6383651436772197  0.03222085302695632  1.0000
  O   O16       1.0  0.2721563340164721  0.16614800138631836  0.7755195167846978  1.0000
  O   O17       1.0  0.08346716908272356  0.0841445040423423  0.6663491645158501  1.0000
  O   O18       1.0  0.8295199637650512  0.004572638950776309  0.7581884208484553  1.0000
  O   O19       1.0  0.8772386983619072  0.44487870784359984  0.7845638715662062  1.0000
  O   O20       1.0  0.5651919825468212  0.45650735843810253  0.02939055417664349  1.0000
  O   O21       1.0  0.2635023285110947  0.8158710869611241  0.720141272759065  1.0000
  O   O22       1.0  0.26924235420301557  0.4090031592641026  0.43061530124396086  1.0000
  O   O23       1.0  0.9490298870368861  0.8754889926894975  0.6782294597505825  1.0000
  O   O24       1.0  0.3380695204832591  0.0855869110164349  0.636622961726971  1.0000
data_image110
_chemical_formula_structural       O24
_chemical_formula_sum              "O24"
_cell_length_a       6.65259782
_cell_length_b       6.76810209
_cell_length_c       7.45043691
_cell_angle_alpha    90.0
_cell_angle_beta     90.0
_cell_angle_gamma    90.0

_space_group_name_H-M_alt    "P 1"
_space_group_IT_number       1

loop_
  _space_group_symop_operation_xyz
  'x, y, z'

loop_
  _atom_site_type_symbol
  _atom_site_label
  _atom_site_symmetry_multiplicity
  _atom_site_fract_x
  _atom_site_fract_y
  _atom_site_fract_z
  _atom_site_occupancy
  O   O1        1.0  0.014910042536939727  0.2063668542978121  0.3171767632593401  1.0000
  O   O2        1.0  0.5675276384135941  0.6767837340594269  0.756546536780661  1.0000
  O   O3        1.0  0.12192546541336924  0.07974806986749172  0.31945508485659957  1.0000
  O   O4        1.0  0.6816904966253787  0.6601697076112032  0.7493348161806352  1.0000
  O   O5        1.0  0.9722387840301963  0.2236488617490977  0.2607396218809299  1.0000
  O   O6        1.0  0.26539590023458004  0.8731120438314974  0.7352612693794072  1.0000
  O   O7        1.0  0.8159195600019302  0.7956491563236341  0.7919475367671112  1.0000
  O   O8        1.0  0.40830582758644596  0.4747373919817619  0.597700891099521  1.0000
  O   O9        1.0  0.39067274355329573  0.06727085885358974  0.39258075870748144  1.0000
  O   O10       1.0  0.4671317763350089  0.537721706321463  0.45638732332736254  1.0000
  O   O11       1.0  0.30699183384422213  0.640151603060076  0.8489835360087454  1.0000
  O   O12       1.0  0.37148265226278454  0.7445148257538676  0.32464379735756665  1.0000
  O   O13       1.0  0.34310602089681197  0.08411830477416515  0.5712933468166739  1.0000
  O   O14       1.0  0.6706672659856849  0.26587705811834894  0.46364741344586946  1.0000
  O   O15       1.0  0.7966893059783615  0.6645362200215459  0.4585988924372941  1.0000
  O   O16       1.0  0.7650803071446717  0.014385311398655176  0.8029876879882067  1.0000
  O   O17       1.0  0.8119915854767896  0.5820294367149472  0.9645721903216327  1.0000
  O   O18       1.0  0.8044496771763079  0.48843565449351445  0.7976762057514861  1.0000
  O   O19       1.0  0.20579668119898997  0.3918785860587377  0.2721498461905867  1.0000
  O   O20       1.0  0.8244155021384358  0.3367072616238147  0.9300715867429972  1.0000
  O   O21       1.0  0.43277819181093946  0.919829330930952  0.9636471522389911  1.0000
  O   O22       1.0  0.6158102178014815  0.9507793278899044  0.9815673078410327  1.0000
  O   O23       1.0  0.6695697353716241  0.17081330925429938  0.2820549271273194  1.0000
  O   O24       1.0  0.6754531044862233  0.15073541198216844  0.9609744617482647  1.0000
data_image111
_chemical_formula_structural       O24
_chemical_formula_sum              "O24"
_cell_length_a       6.65259782
_cell_length_b       6.76810209
_cell_length_c       7.45043691
_cell_angle_alpha    90.0
_cell_angle_beta     90.0
_cell_angle_gamma    90.0

_space_group_name_H-M_alt    "P 1"
_space_group_IT_number       1

loop_
  _space_group_symop_operation_xyz
  'x, y, z'

loop_
  _atom_site_type_symbol
  _atom_site_label
  _atom_site_symmetry_multiplicity
  _atom_site_fract_x
  _atom_site_fract_y
  _atom_site_fract_z
  _atom_site_occupancy
  O   O1        1.0  0.5178438077637111  0.10379252495476976  0.8033789142791647  1.0000
  O   O2        1.0  0.7746438266913174  0.14008692669449374  0.6567662226734683  1.0000
  O   O3        1.0  0.9130819468991831  0.8897168398834765  0.18511028226930648  1.0000
  O   O4        1.0  0.8579345739271957  0.19803660397883505  0.20311605269671418  1.0000
  O   O5        1.0  0.7429971625533653  0.5896982607955579  0.0798688500362914  1.0000
  O   O6        1.0  0.8415638690348715  0.1739650561939925  0.6101532455068082  1.0000
  O   O7        1.0  0.913262389425654  0.43510960187995806  0.7408536928123794  1.0000
  O   O8        1.0  0.5095856923871906  0.920939001487568  0.17333118383248802  1.0000
  O   O9        1.0  0.4390209654375212  0.6976282463292591  0.41560654173372313  1.0000
  O   O10       1.0  0.5989757911956985  0.38119283656124026  0.9707150982285384  1.0000
  O   O11       1.0  0.07236499362625182  0.252059442223981  0.2368912766687572  1.0000
  O   O12       1.0  0.1756674055941403  0.8482775602024049  0.272199266590178  1.0000
  O   O13       1.0  0.448408943193499  0.9947060224367306  0.2631492977961898  1.0000
  O   O14       1.0  0.5952357760252198  0.32847134803887457  0.8598842057399452  1.0000
  O   O15       1.0  0.1203231432591565  0.3328993443865329  0.013004606822505593  1.0000
  O   O16       1.0  0.679243350867182  0.982338763133157  0.3800799669697881  1.0000
  O   O17       1.0  0.30499076267005876  0.9144927215529606  0.7653093350527342  1.0000
  O   O18       1.0  0.008706581706064753  0.30332607636228204  0.15663647738983855  1.0000
  O   O19       1.0  0.13411742647349456  0.020785853412235156  0.865565545624122  1.0000
  O   O20       1.0  0.41248757345601916  0.7134454645565711  0.17904125608038157  1.0000
  O   O21       1.0  0.3096943933633156  0.2743382224580273  0.649202928354498  1.0000
  O   O22       1.0  0.06337312562391162  0.9077592857647687  0.5075452881865203  1.0000
  O   O23       1.0  0.10163080471102148  0.046833188433083706  0.38442421781655867  1.0000
  O   O24       1.0  0.4648460370954126  0.5501008322753478  0.6281653338810429  1.0000
data_image112
_chemical_formula_structural       O24
_chemical_formula_sum              "O24"
_cell_length_a       6.65259782
_cell_length_b       6.76810209
_cell_length_c       7.45043691
_cell_angle_alpha    90.0
_cell_angle_beta     90.0
_cell_angle_gamma    90.0

_space_group_name_H-M_alt    "P 1"
_space_group_IT_number       1

loop_
  _space_group_symop_operation_xyz
  'x, y, z'

loop_
  _atom_site_type_symbol
  _atom_site_label
  _atom_site_symmetry_multiplicity
  _atom_site_fract_x
  _atom_site_fract_y
  _atom_site_fract_z
  _atom_site_occupancy
  O   O1        1.0  0.1653926678627613  0.2857635302498238  0.826904327084776  1.0000
  O   O2        1.0  0.6258718523022253  0.4764574532164261  0.9676002036721911  1.0000
  O   O3        1.0  0.45571864140219986  0.7727635558694601  0.9590565705439076  1.0000
  O   O4        1.0  0.6706318440774339  0.5909807571442798  0.09238493368320633  1.0000
  O   O5        1.0  0.2942449367546942  0.9159971222106833  0.7423565456701908  1.0000
  O   O6        1.0  0.0019104273524135351  0.027599011664278805  0.6987609351053834  1.0000
  O   O7        1.0  0.36246643774211407  0.5067523524048738  0.6494702410564059  1.0000
  O   O8        1.0  0.8708935855975142  0.08884343516547233  0.2586656537896488  1.0000
  O   O9        1.0  0.949887228460284  0.23772960889618844  0.6690346217073966  1.0000
  O   O10       1.0  0.1563481812554528  0.8600859926373232  0.226745851628948  1.0000
  O   O11       1.0  0.910897713038139  0.9537496917764656  0.48238900769501925  1.0000
  O   O12       1.0  0.9167309369659051  0.8555175759829581  0.6186319247353822  1.0000
  O   O13       1.0  0.3359356511646183  0.8854665135731921  0.2990851077483967  1.0000
  O   O14       1.0  0.02947839680200559  0.5535370235447772  0.6479510439385194  1.0000
  O   O15       1.0  0.36706950567895547  0.11955984774976969  0.9752702561672777  1.0000
  O   O16       1.0  0.3367117661982775  0.012746226391755044  0.1944102745037526  1.0000
  O   O17       1.0  0.950687657459639  0.44320996676106006  0.7910662939539179  1.0000
  O   O18       1.0  0.697290908152354  0.5210554967052303  0.9709534867433831  1.0000
  O   O19       1.0  0.7879254256031345  0.8168391323706601  0.1903438104200177  1.0000
  O   O20       1.0  0.021626739529892802  0.3412771138828248  0.6766246045008302  1.0000
  O   O21       1.0  0.21172473453043494  0.8179552932851948  0.06955747678875923  1.0000
  O   O22       1.0  0.15690555796027184  0.7968036746606231  0.8890174380503595  1.0000
  O   O23       1.0  0.879482558608288  0.6321010340179782  0.23716891364892945  1.0000
  O   O24       1.0  0.8441669822786935  0.4872086863470031  0.8665496999165043  1.0000
data_image113
_chemical_formula_structural       O24
_chemical_formula_sum              "O24"
_cell_length_a       6.65259782
_cell_length_b       6.76810209
_cell_length_c       7.45043691
_cell_angle_alpha    90.0
_cell_angle_beta     90.0
_cell_angle_gamma    90.0

_space_group_name_H-M_alt    "P 1"
_space_group_IT_number       1

loop_
  _space_group_symop_operation_xyz
  'x, y, z'

loop_
  _atom_site_type_symbol
  _atom_site_label
  _atom_site_symmetry_multiplicity
  _atom_site_fract_x
  _atom_site_fract_y
  _atom_site_fract_z
  _atom_site_occupancy
  O   O1        1.0  0.13443284688401036  0.06411262734036427  0.7547319756849902  1.0000
  O   O2        1.0  0.7572861654043663  0.8541743251844309  0.38567256747046486  1.0000
  O   O3        1.0  0.6750237006926909  0.21196231606882066  0.9777783745666966  1.0000
  O   O4        1.0  0.050174938383861445  0.11564382910728455  0.45273035211721435  1.0000
  O   O5        1.0  0.5616960710322019  0.23895571506000124  0.24172482997528277  1.0000
  O   O6        1.0  0.6616118859965354  0.5923283110605553  0.6426626851316541  1.0000
  O   O7        1.0  0.3541614855348598  0.29685741069260985  0.944766947242897  1.0000
  O   O8        1.0  0.03523564031638671  0.4080478781834245  0.5688845011645753  1.0000
  O   O9        1.0  0.8157233053643722  0.24768905401288066  0.9675354721985059  1.0000
  O   O10       1.0  0.11649819599551847  0.18165712567861192  0.10455983242718503  1.0000
  O   O11       1.0  0.6561182754230686  0.2022530765098054  0.45759508293122053  1.0000
  O   O12       1.0  0.07525678805541247  0.2177421748638153  0.3702279494609684  1.0000
  O   O13       1.0  0.9934283957263688  0.5794980343198404  0.021063308347947896  1.0000
  O   O14       1.0  0.26467093382643725  0.47609244065824896  0.9824973514769226  1.0000
  O   O15       1.0  0.6810021410929039  0.038701951736584306  0.514490197878331  1.0000
  O   O16       1.0  0.1091611438896507  0.7764073070138693  0.6207310226745903  1.0000
  O   O17       1.0  0.7881667322362773  0.2404451210750267  0.5445224600262009  1.0000
  O   O18       1.0  0.47034437950060237  0.10080443407059647  0.06470514117972925  1.0000
  O   O19       1.0  0.9296966074434749  0.17756618588464335  0.6886222036555409  1.0000
  O   O20       1.0  0.4703846429474652  0.8369321335339919  0.4958670777268708  1.0000
  O   O21       1.0  0.8681031286978396  0.4363125750096515  0.549825219262857  1.0000
  O   O22       1.0  0.5820891009643674  0.9320150451967493  0.03200535895302892  1.0000
  O   O23       1.0  0.852396708643937  0.4245288287565927  0.995773054070014  1.0000
  O   O24       1.0  0.09733709460124373  0.3492722536211659  0.6210263774264604  1.0000
data_image114
_chemical_formula_structural       O24
_chemical_formula_sum              "O24"
_cell_length_a       6.65259782
_cell_length_b       6.76810209
_cell_length_c       7.45043691
_cell_angle_alpha    90.0
_cell_angle_beta     90.0
_cell_angle_gamma    90.0

_space_group_name_H-M_alt    "P 1"
_space_group_IT_number       1

loop_
  _space_group_symop_operation_xyz
  'x, y, z'

loop_
  _atom_site_type_symbol
  _atom_site_label
  _atom_site_symmetry_multiplicity
  _atom_site_fract_x
  _atom_site_fract_y
  _atom_site_fract_z
  _atom_site_occupancy
  O   O1        1.0  0.3837288351460302  0.7038502644281834  0.6444778408622369  1.0000
  O   O2        1.0  0.11231175719876774  0.0031756507814861834  0.408534391928697  1.0000
  O   O3        1.0  0.29340528056491166  0.6153756155399606  0.48301436484325677  1.0000
  O   O4        1.0  0.9696587680809898  0.8116482463665307  0.511740821733838  1.0000
  O   O5        1.0  0.1378973224927904  0.4681106841308065  0.8052497491007671  1.0000
  O   O6        1.0  0.5503444985952228  0.7722707001958042  0.6934830639511347  1.0000
  O   O7        1.0  0.19263011368457228  0.5246565750567243  0.4751144391921116  1.0000
  O   O8        1.0  0.19754277366155293  0.9605088027892634  0.16799560497020138  1.0000
  O   O9        1.0  0.4672185109666316  0.6612576187035302  0.5362366746994667  1.0000
  O   O10       1.0  0.8403207602386829  0.2613992716069333  0.35664719762280583  1.0000
  O   O11       1.0  0.28793378808768466  0.27110637558507733  0.798073407728225  1.0000
  O   O12       1.0  0.42802887386642396  0.1557790949009359  0.8347561979899183  1.0000
  O   O13       1.0  0.3299549959192518  0.6061757733114064  0.5985619656275958  1.0000
  O   O14       1.0  0.5001715404214337  0.20850113770575263  0.21391199980280362  1.0000
  O   O15       1.0  0.6293297206866555  0.7642413834109902  0.6553677485790104  1.0000
  O   O16       1.0  0.007394135696813464  0.9480098851490766  0.3603835813701153  1.0000
  O   O17       1.0  0.7447713476140052  0.21428253967314959  0.8551380304561462  1.0000
  O   O18       1.0  0.6953062119573588  0.31625804290524684  0.5964539264095947  1.0000
  O   O19       1.0  0.7193613799463492  0.44858233057311736  0.9916954096697737  1.0000
  O   O20       1.0  0.16518245358020067  0.5925182122446131  0.9259160124929622  1.0000
  O   O21       1.0  0.41324697267555166  0.23358522000489756  0.6790757860871963  1.0000
  O   O22       1.0  0.4401947124861181  0.8479385509854183  0.10641669295728207  1.0000
  O   O23       1.0  0.017071133290301077  0.6252832427053363  0.4115824760083342  1.0000
  O   O24       1.0  0.47699437924893573  0.9854850188276032  0.890172015526332  1.0000
data_image115
_chemical_formula_structural       O24
_chemical_formula_sum              "O24"
_cell_length_a       6.65259782
_cell_length_b       6.76810209
_cell_length_c       7.45043691
_cell_angle_alpha    90.0
_cell_angle_beta     90.0
_cell_angle_gamma    90.0

_space_group_name_H-M_alt    "P 1"
_space_group_IT_number       1

loop_
  _space_group_symop_operation_xyz
  'x, y, z'

loop_
  _atom_site_type_symbol
  _atom_site_label
  _atom_site_symmetry_multiplicity
  _atom_site_fract_x
  _atom_site_fract_y
  _atom_site_fract_z
  _atom_site_occupancy
  O   O1        1.0  0.9442444671367412  0.41285829718981404  0.4117392039333936  1.0000
  O   O2        1.0  0.4836157420941163  0.5965841303113848  0.954804561653873  1.0000
  O   O3        1.0  0.09795174421742558  0.7490173886762932  0.017857424216344953  1.0000
  O   O4        1.0  0.8478871386541869  0.6306886236416176  0.34312370351108257  1.0000
  O   O5        1.0  0.10751455147692468  0.8733741766482126  0.25178359291749075  1.0000
  O   O6        1.0  0.5040119895711541  0.7011960936943069  0.678847904317081  1.0000
  O   O7        1.0  0.7493386758142151  0.46536634815856814  0.8367467553034658  1.0000
  O   O8        1.0  0.21796578489011154  0.038740041956771165  0.40163418526935857  1.0000
  O   O9        1.0  0.9631887283612741  0.9667205822042888  0.12130678541143425  1.0000
  O   O10       1.0  0.0311833953455789  0.5561657489743084  0.503792325995164  1.0000
  O   O11       1.0  0.7325085767079145  0.5035963554691989  0.5449787823017687  1.0000
  O   O12       1.0  0.7058080019196495  0.5590550415217876  0.32489491382148117  1.0000
  O   O13       1.0  0.008392624396947213  0.3960350395645946  0.5909420046955347  1.0000
  O   O14       1.0  0.7317863663774915  0.27136393170803785  0.8707403852022253  1.0000
  O   O15       1.0  0.812711397127714  0.13742642756551504  0.7902027391828597  1.0000
  O   O16       1.0  0.010876378044486046  0.7173910459387116  0.9596638674847782  1.0000
  O   O17       1.0  0.3365710125071928  0.2523717764997855  0.13500249225762673  1.0000
  O   O18       1.0  0.20858751714695245  0.9275045426620636  0.16982430819189176  1.0000
  O   O19       1.0  0.8632536009099567  0.8249476725177374  0.9781457791686989  1.0000
  O   O20       1.0  0.9497266793623567  0.13894647438428365  0.720718722557649  1.0000
  O   O21       1.0  0.8684633527882397  0.47651549900183454  0.4680500624817796  1.0000
  O   O22       1.0  0.8653550036251545  0.16136481857392937  0.6169907595030963  1.0000
  O   O23       1.0  0.8834558332528104  0.19465296515409136  0.63695048027148  1.0000
  O   O24       1.0  0.0756017550593242  0.44811718134587863  0.6712576793506742  1.0000
data_image116
_chemical_formula_structural       O24
_chemical_formula_sum              "O24"
_cell_length_a       6.65259782
_cell_length_b       6.76810209
_cell_length_c       7.45043691
_cell_angle_alpha    90.0
_cell_angle_beta     90.0
_cell_angle_gamma    90.0

_space_group_name_H-M_alt    "P 1"
_space_group_IT_number       1

loop_
  _space_group_symop_operation_xyz
  'x, y, z'

loop_
  _atom_site_type_symbol
  _atom_site_label
  _atom_site_symmetry_multiplicity
  _atom_site_fract_x
  _atom_site_fract_y
  _atom_site_fract_z
  _atom_site_occupancy
  O   O1        1.0  0.36142920594647876  0.01091730130428914  0.8463429759576684  1.0000
  O   O2        1.0  0.16689968486025464  0.9890355643583462  0.595261191483587  1.0000
  O   O3        1.0  0.017491684295237064  0.9948992148274556  0.7495256901020184  1.0000
  O   O4        1.0  0.6873759522059117  0.019952444941736758  0.1097874911793042  1.0000
  O   O5        1.0  0.8600959226314444  0.4048406780057121  0.03699010121636093  1.0000
  O   O6        1.0  0.41597725078463554  0.4911750863539055  0.4815460860263556  1.0000
  O   O7        1.0  0.5188081858213991  0.5074955265736207  0.44047865651373286  1.0000
  O   O8        1.0  0.2328439762495691  0.06087973713874817  0.8151448233002156  1.0000
  O   O9        1.0  0.7199563789617969  0.7841507173143327  0.44566680426942185  1.0000
  O   O10       1.0  0.2246941578850965  0.18676398420939222  0.19578457588795573  1.0000
  O   O11       1.0  0.12671925051836297  0.49840015795780346  0.5030264225788414  1.0000
  O   O12       1.0  0.5540892890421674  0.256082481238991  0.5420401425799355  1.0000
  O   O13       1.0  0.1840170573850628  0.48375072109047323  0.006828169338405132  1.0000
  O   O14       1.0  0.6467613671266008  0.1644990460772533  0.6044372782343999  1.0000
  O   O15       1.0  0.1266442652558908  0.09336908138357103  0.6209245384670794  1.0000
  O   O16       1.0  0.3233030359260738  0.2020349242957309  0.007684913696721196  1.0000
  O   O17       1.0  0.5814831065945327  0.6719638949725777  0.9974631011718884  1.0000
  O   O18       1.0  0.8600196407060139  0.8379158943134826  0.8087589968345128  1.0000
  O   O19       1.0  0.7920106042874977  0.9517847665410955  0.6068462957045995  1.0000
  O   O20       1.0  0.7062482035253197  0.8735203809919767  0.5014826162951067  1.0000
  O   O21       1.0  0.7679212505026953  0.8055493918946013  0.37169681256636977  1.0000
  O   O22       1.0  0.09136112686246634  0.3530265794834122  0.7494489811360836  1.0000
  O   O23       1.0  0.7897681588074192  0.4714350851609197  0.7828447657375364  1.0000
  O   O24       1.0  0.24408160307211801  0.8865575036925293  0.17998807912226766  1.0000
data_image117
_chemical_formula_structural       O24
_chemical_formula_sum              "O24"
_cell_length_a       6.65259782
_cell_length_b       6.76810209
_cell_length_c       7.45043691
_cell_angle_alpha    90.0
_cell_angle_beta     90.0
_cell_angle_gamma    90.0

_space_group_name_H-M_alt    "P 1"
_space_group_IT_number       1

loop_
  _space_group_symop_operation_xyz
  'x, y, z'

loop_
  _atom_site_type_symbol
  _atom_site_label
  _atom_site_symmetry_multiplicity
  _atom_site_fract_x
  _atom_site_fract_y
  _atom_site_fract_z
  _atom_site_occupancy
  O   O1        1.0  0.2674489835881104  0.05782887400710024  0.24850925127975643  1.0000
  O   O2        1.0  0.14555457496317104  0.3978565653669648  0.26314928784267977  1.0000
  O   O3        1.0  0.70219517336227  0.9960283652180806  0.4021811109269038  1.0000
  O   O4        1.0  0.3766737149635446  0.6388191435253248  0.0732998894964112  1.0000
  O   O5        1.0  0.7292061175976414  0.030870305927237496  0.16982064934563823  1.0000
  O   O6        1.0  0.33318858151324093  0.46282682579476386  0.9381995967123657  1.0000
  O   O7        1.0  0.22191492569982074  0.701710432767868  0.44526106060948223  1.0000
  O   O8        1.0  0.10192907380405813  0.6526070320396684  0.8926980641081173  1.0000
  O   O9        1.0  0.6954475241218461  0.052398319079657085  0.2796608648059191  1.0000
  O   O10       1.0  0.07773927620291943  0.9336532538291067  0.5251100169552956  1.0000
  O   O11       1.0  0.9709150497219525  0.6168509195558727  0.39957876689732075  1.0000
  O   O12       1.0  0.7077353023923934  0.7921075208578259  0.4136292990297079  1.0000
  O   O13       1.0  0.0972810475359438  0.83411190926563  0.6667621202068403  1.0000
  O   O14       1.0  0.030067762185353786  0.32686902285786346  0.4246306380373426  1.0000
  O   O15       1.0  0.1501856671529822  0.2667958305682987  0.6355830563697964  1.0000
  O   O16       1.0  0.46353758522309363  0.8872613100102171  0.8459518169984221  1.0000
  O   O17       1.0  0.8393141087144613  0.2986481711268425  0.448042204225203  1.0000
  O   O18       1.0  0.8351438292738749  0.9483811497048009  0.8999957458581775  1.0000
  O   O19       1.0  0.833329492728808  0.040599546453449875  0.9284663843573071  1.0000
  O   O20       1.0  0.7430988906417042  0.5580943720706273  0.8229255775222555  1.0000
  O   O21       1.0  0.17265639096149243  0.7382696550921537  0.46134311315836385  1.0000
  O   O22       1.0  0.9965033079497516  0.8202880984172225  0.3396590752527118  1.0000
  O   O23       1.0  0.21362204593606293  0.8174233895115322  0.7963284886354813  1.0000
  O   O24       1.0  0.2953119332669303  0.12970016614417545  0.6792135215364397  1.0000
data_image118
_chemical_formula_structural       O24
_chemical_formula_sum              "O24"
_cell_length_a       6.65259782
_cell_length_b       6.76810209
_cell_length_c       7.45043691
_cell_angle_alpha    90.0
_cell_angle_beta     90.0
_cell_angle_gamma    90.0

_space_group_name_H-M_alt    "P 1"
_space_group_IT_number       1

loop_
  _space_group_symop_operation_xyz
  'x, y, z'

loop_
  _atom_site_type_symbol
  _atom_site_label
  _atom_site_symmetry_multiplicity
  _atom_site_fract_x
  _atom_site_fract_y
  _atom_site_fract_z
  _atom_site_occupancy
  O   O1        1.0  0.4131800839641073  0.4172304021049058  0.6070466755336383  1.0000
  O   O2        1.0  0.15704374213237315  0.11013437976362184  0.9321167734160554  1.0000
  O   O3        1.0  0.5798631615471095  0.931315277935937  0.6508151298621669  1.0000
  O   O4        1.0  0.2682607868264313  0.7659037784906104  0.8740335977781797  1.0000
  O   O5        1.0  0.3167461360571906  0.18124856502981856  0.8548812270455528  1.0000
  O   O6        1.0  0.31676103780046105  0.419877176056616  0.8327350297477096  1.0000
  O   O7        1.0  0.7282435400702525  0.636864556116052  0.05440233222907409  1.0000
  O   O8        1.0  0.7458706779289059  0.4637711111572571  0.8531453839568712  1.0000
  O   O9        1.0  0.056305321952095255  0.6043868941487744  0.44903081822849344  1.0000
  O   O10       1.0  0.012590164216817357  0.09850184101378545  0.16351848709746264  1.0000
  O   O11       1.0  0.8533323245355859  0.8841888466267847  0.9683279469609261  1.0000
  O   O12       1.0  0.9064829560229555  0.925163890235126  0.6926494386279956  1.0000
  O   O13       1.0  0.8596018768585054  0.8481940892525017  0.5944284364813939  1.0000
  O   O14       1.0  0.8574635497352574  0.7557026251161005  0.05721756792627275  1.0000
  O   O15       1.0  0.7014286474441178  0.7912185660097748  0.619199532084167  1.0000
  O   O16       1.0  0.1262716930359602  0.7498101419187151  0.025942343985661864  1.0000
  O   O17       1.0  0.9817826518556103  0.6350810654694214  0.7866097228252329  1.0000
  O   O18       1.0  0.990043356505339  0.6799668772146106  0.871401452284772  1.0000
  O   O19       1.0  0.26182818569941446  0.8343406556523405  0.97241754893912  1.0000
  O   O20       1.0  0.48307608673349023  0.8273083879612386  0.6519799320958555  1.0000
  O   O21       1.0  0.4386531673371792  0.9685490357223898  0.08552570728352293  1.0000
  O   O22       1.0  0.8174896757118404  0.8139569043414667  0.9813200114294887  1.0000
  O   O23       1.0  0.8314045587321743  0.32911981976940297  0.7821627208177233  1.0000
  O   O24       1.0  0.2962769583100453  0.3281653271988034  0.6390917755197734  1.0000
data_image119
_chemical_formula_structural       O24
_chemical_formula_sum              "O24"
_cell_length_a       6.65259782
_cell_length_b       6.76810209
_cell_length_c       7.45043691
_cell_angle_alpha    90.0
_cell_angle_beta     90.0
_cell_angle_gamma    90.0

_space_group_name_H-M_alt    "P 1"
_space_group_IT_number       1

loop_
  _space_group_symop_operation_xyz
  'x, y, z'

loop_
  _atom_site_type_symbol
  _atom_site_label
  _atom_site_symmetry_multiplicity
  _atom_site_fract_x
  _atom_site_fract_y
  _atom_site_fract_z
  _atom_site_occupancy
  O   O1        1.0  0.1016609470207186  0.1414637632551603  0.8199510320118861  1.0000
  O   O2        1.0  0.8435955753957387  0.0098406738252379  0.17832603555871174  1.0000
  O   O3        1.0  0.6303357299184427  0.18232695164624602  0.5374418630963191  1.0000
  O   O4        1.0  0.5363069448940223  0.800787614309229  0.9242901579855243  1.0000
  O   O5        1.0  0.7528767010371666  0.5640573026321363  0.34026073760469444  1.0000
  O   O6        1.0  0.6115181578788906  0.29275217605754733  0.9380021849647164  1.0000
  O   O7        1.0  0.4583044972969219  0.62655179615831  0.07857277338916901  1.0000
  O   O8        1.0  0.06864327240327839  0.663271612371318  0.7458352523281064  1.0000
  O   O9        1.0  0.09455655548663344  0.8924025995074771  0.47299097072391305  1.0000
  O   O10       1.0  0.9438194736867445  0.058673288265708834  0.2989029769669287  1.0000
  O   O11       1.0  0.33239670941838995  0.09570164934848435  0.8688637947198004  1.0000
  O   O12       1.0  0.27634002652484924  0.33599615935236216  0.4735571638448164  1.0000
  O   O13       1.0  0.2275388735724846  0.677475578035228  0.23468299861997366  1.0000
  O   O14       1.0  0.9268381725123618  0.562721214373596  0.709083977562841  1.0000
  O   O15       1.0  0.71417102398118  0.3457192531786859  0.71414690813981  1.0000
  O   O16       1.0  0.7451656791381538  0.1895209278445691  0.47151125269010663  1.0000
  O   O17       1.0  0.48022641718853265  0.287968173623085  0.5942845895478968  1.0000
  O   O18       1.0  0.15167392069997732  0.6261257577862125  0.48184153431793675  1.0000
  O   O19       1.0  0.7124434863799252  0.2179710188647732  0.45461972907651216  1.0000
  O   O20       1.0  0.6720799282193184  8.082974818535149e-05  0.9310417037922889  1.0000
  O   O21       1.0  0.7664940452377778  0.5659630615264177  0.20899410371202976  1.0000
  O   O22       1.0  0.9015187374316156  0.13924666086677462  0.5387262995354831  1.0000
  O   O23       1.0  0.636891842354089  0.457464296836406  0.5507960011891555  1.0000
  O   O24       1.0  0.4146035610465333  0.2659179064212367  0.4332754611968994  1.0000
data_image120
_chemical_formula_structural       O24
_chemical_formula_sum              "O24"
_cell_length_a       6.65259782
_cell_length_b       6.76810209
_cell_length_c       7.45043691
_cell_angle_alpha    90.0
_cell_angle_beta     90.0
_cell_angle_gamma    90.0

_space_group_name_H-M_alt    "P 1"
_space_group_IT_number       1

loop_
  _space_group_symop_operation_xyz
  'x, y, z'

loop_
  _atom_site_type_symbol
  _atom_site_label
  _atom_site_symmetry_multiplicity
  _atom_site_fract_x
  _atom_site_fract_y
  _atom_site_fract_z
  _atom_site_occupancy
  O   O1        1.0  0.3297089056322875  0.5362780595314689  0.39927110279677436  1.0000
  O   O2        1.0  0.5794318865810055  0.5462638571043499  0.6336123262881301  1.0000
  O   O3        1.0  0.6895540177356452  0.4818816480692476  0.7581719179870561  1.0000
  O   O4        1.0  0.13889686135371448  0.4909897521138191  0.23132302233716473  1.0000
  O   O5        1.0  0.6967515382275451  0.6236166605231119  0.1996067044674419  1.0000
  O   O6        1.0  0.5354985222220421  0.5841418849304318  0.5342495618388057  1.0000
  O   O7        1.0  0.6594631813059095  0.2912987795425579  0.5772028617066098  1.0000
  O   O8        1.0  0.6525759710202692  0.7079226079513319  0.3843186371450429  1.0000
  O   O9        1.0  0.5305558683176059  0.26211087784031406  0.7277470955013996  1.0000
  O   O10       1.0  0.6945232255748124  0.589162920427043  0.18405927691492252  1.0000
  O   O11       1.0  0.27356414578389376  0.36376355367247015  0.7443323791958392  1.0000
  O   O12       1.0  0.5202977953013033  0.6435118401423097  0.15350224019493908  1.0000
  O   O13       1.0  0.1894825238850899  0.8814704831456766  0.9008819195441902  1.0000
  O   O14       1.0  0.14534894580719993  0.6271241125359666  0.797883607854601  1.0000
  O   O15       1.0  0.2776253373012878  0.9258647242095321  0.27293679071590304  1.0000
  O   O16       1.0  0.8458875331562012  0.8450332277570851  0.4243397586978972  1.0000
  O   O17       1.0  0.13538542157039046  0.7764261191477999  0.29527023306582123  1.0000
  O   O18       1.0  0.7258721104299184  0.15201927779708058  0.7869045069091953  1.0000
  O   O19       1.0  0.5705357161641587  0.5876163495122455  0.5433941400260665  1.0000
  O   O20       1.0  0.6983031543204561  0.6913454115565401  0.6499170132447034  1.0000
  O   O21       1.0  0.9073153123172233  0.2023474623565562  0.12759120162809268  1.0000
  O   O22       1.0  0.0006650527939200401  0.3285624785348773  0.6946869292296469  1.0000
  O   O23       1.0  0.505352467065677  0.8401286829030141  0.5991829245176632  1.0000
  O   O24       1.0  0.6974047857802361  0.021119533688761294  0.37961320183239877  1.0000
data_image121
_chemical_formula_structural       O24
_chemical_formula_sum              "O24"
_cell_length_a       6.65259782
_cell_length_b       6.76810209
_cell_length_c       7.45043691
_cell_angle_alpha    90.0
_cell_angle_beta     90.0
_cell_angle_gamma    90.0

_space_group_name_H-M_alt    "P 1"
_space_group_IT_number       1

loop_
  _space_group_symop_operation_xyz
  'x, y, z'

loop_
  _atom_site_type_symbol
  _atom_site_label
  _atom_site_symmetry_multiplicity
  _atom_site_fract_x
  _atom_site_fract_y
  _atom_site_fract_z
  _atom_site_occupancy
  O   O1        1.0  0.19510360565254814  0.38403823804401327  0.46002855991537217  1.0000
  O   O2        1.0  0.3317621944588609  0.37634631572291255  0.5800071307749022  1.0000
  O   O3        1.0  0.923373409663327  0.6534819026710466  0.34764207748230547  1.0000
  O   O4        1.0  0.031648149859393016  0.05463717959355563  0.5531668732292019  1.0000
  O   O5        1.0  0.4237470332591329  0.44196506051230244  0.3652127089444548  1.0000
  O   O6        1.0  0.050507310312241316  0.6400615461170673  0.9987408255692571  1.0000
  O   O7        1.0  0.15517234429717064  0.1195839221472852  0.017234302111319266  1.0000
  O   O8        1.0  0.9722620818793075  0.5838673240505159  0.875782261869972  1.0000
  O   O9        1.0  0.48931306455051526  0.6534417915245285  0.8914413993188646  1.0000
  O   O10       1.0  0.8011403819400584  0.380320572090568  0.3109248875407502  1.0000
  O   O11       1.0  0.020737495739012957  0.5859492485469673  0.39529455825686455  1.0000
  O   O12       1.0  0.047205130802467465  0.9984221821650863  0.19001611333806068  1.0000
  O   O13       1.0  0.021001845452701673  0.8621545021887869  0.11687266221269965  1.0000
  O   O14       1.0  0.9094353251857683  0.35405592239112593  0.43387850502040237  1.0000
  O   O15       1.0  0.503121595014818  0.12201513233594596  0.9880977924913168  1.0000
  O   O16       1.0  0.33776665572077036  0.4839816300664097  0.8693074155598879  1.0000
  O   O17       1.0  0.07051951717585325  0.7193901631981134  0.7189952077023918  1.0000
  O   O18       1.0  0.6144835936502204  0.03377484259544872  0.23202320316340774  1.0000
  O   O19       1.0  0.21826739003881812  0.718327033915557  0.9111182646011002  1.0000
  O   O20       1.0  0.8937047952786088  0.5060716492589563  0.45364076527766883  1.0000
  O   O21       1.0  0.29792546114185825  0.5559696519048885  0.8956854118732736  1.0000
  O   O22       1.0  0.7613037768751383  0.16780251788441092  0.3703966084867716  1.0000
  O   O23       1.0  0.29135217622388154  0.8548290907783667  0.5537647323362762  1.0000
  O   O24       1.0  0.6391460067825392  0.7495128783048131  0.47072697582188994  1.0000
data_image122
_chemical_formula_structural       O24
_chemical_formula_sum              "O24"
_cell_length_a       6.65259782
_cell_length_b       6.76810209
_cell_length_c       7.45043691
_cell_angle_alpha    90.0
_cell_angle_beta     90.0
_cell_angle_gamma    90.0

_space_group_name_H-M_alt    "P 1"
_space_group_IT_number       1

loop_
  _space_group_symop_operation_xyz
  'x, y, z'

loop_
  _atom_site_type_symbol
  _atom_site_label
  _atom_site_symmetry_multiplicity
  _atom_site_fract_x
  _atom_site_fract_y
  _atom_site_fract_z
  _atom_site_occupancy
  O   O1        1.0  0.3419457534000685  0.485550873723696  0.23074207386525813  1.0000
  O   O2        1.0  0.0007154992345022038  0.5120357609703206  0.13663530643680133  1.0000
  O   O3        1.0  0.7330532589694485  0.433500008424744  0.22502970625646412  1.0000
  O   O4        1.0  0.9079006929387106  0.8849285378819332  0.3543121373950271  1.0000
  O   O5        1.0  0.8793683549156412  0.33296633418649435  0.12802279932657257  1.0000
  O   O6        1.0  0.1610693195834756  0.5391102249268442  0.31377297709695995  1.0000
  O   O7        1.0  0.5829440178640652  0.69632035237737  0.90343742389814  1.0000
  O   O8        1.0  0.5034098060277756  0.6711291322717443  0.490417566983524  1.0000
  O   O9        1.0  0.1753502615611069  0.5787284395482857  0.8438713580690091  1.0000
  O   O10       1.0  0.7772171332180733  0.4598365357669536  0.025989423069404438  1.0000
  O   O11       1.0  0.459683500463143  0.8706738287582994  0.4751097233965993  1.0000
  O   O12       1.0  0.0019658240489661694  0.43447763309814036  0.9670119137736037  1.0000
  O   O13       1.0  0.20279380393913016  0.7307112481212243  0.9419469654094428  1.0000
  O   O14       1.0  0.811338023719145  0.6069086115749087  0.07182572729652748  1.0000
  O   O15       1.0  0.05813616613158956  0.6318660352844745  0.1716614591423422  1.0000
  O   O16       1.0  0.3351993220858276  0.7325535730924457  0.3654499251861125  1.0000
  O   O17       1.0  0.42335129831917584  0.009235825040377676  0.34154954737459775  1.0000
  O   O18       1.0  0.36327694401552435  0.8195709139981773  0.5121028762077913  1.0000
  O   O19       1.0  0.04845880687935278  0.7906539176474325  0.6945031708455645  1.0000
  O   O20       1.0  0.2239266320830211  0.9816528269730043  0.5248783831484616  1.0000
  O   O21       1.0  0.3834363945061341  0.42003605235368013  0.8675815217429772  1.0000
  O   O22       1.0  0.06575089786201715  0.1900043854257092  0.7113474477082491  1.0000
  O   O23       1.0  0.44913237023865804  0.7203483200573828  0.7724487697851146  1.0000
  O   O24       1.0  0.11057628889102489  0.46720090322196484  0.9303510381141677  1.0000
data_image123
_chemical_formula_structural       O24
_chemical_formula_sum              "O24"
_cell_length_a       6.65259782
_cell_length_b       6.76810209
_cell_length_c       7.45043691
_cell_angle_alpha    90.0
_cell_angle_beta     90.0
_cell_angle_gamma    90.0

_space_group_name_H-M_alt    "P 1"
_space_group_IT_number       1

loop_
  _space_group_symop_operation_xyz
  'x, y, z'

loop_
  _atom_site_type_symbol
  _atom_site_label
  _atom_site_symmetry_multiplicity
  _atom_site_fract_x
  _atom_site_fract_y
  _atom_site_fract_z
  _atom_site_occupancy
  O   O1        1.0  0.37578981446313264  0.7657703371078242  0.5029507580475183  1.0000
  O   O2        1.0  0.9821380466601113  0.2935263503459282  0.3556091650680173  1.0000
  O   O3        1.0  0.23412560322321951  0.21212702663615346  0.9234064208576456  1.0000
  O   O4        1.0  0.8647857812611619  0.9076809131074697  0.4364395826414693  1.0000
  O   O5        1.0  0.8922419615555555  0.10015629814006388  0.0711124800145626  1.0000
  O   O6        1.0  0.6323760761879385  0.7677639343310148  0.1608441590797156  1.0000
  O   O7        1.0  0.9509221579064615  0.6694496606942266  0.9976542843942298  1.0000
  O   O8        1.0  0.08301237330306321  0.09557843551738188  0.13324349683898618  1.0000
  O   O9        1.0  0.5469357380352449  0.23201640366460197  0.16451457724906504  1.0000
  O   O10       1.0  0.7111282064579427  0.02330976477242075  0.822500714159105  1.0000
  O   O11       1.0  0.3415466626174748  0.8633535356202628  0.6399564205203205  1.0000
  O   O12       1.0  0.6817570616258308  0.999455128563568  0.0407484108582139  1.0000
  O   O13       1.0  0.40047592684277333  0.6078788097947836  0.8383608110016212  1.0000
  O   O14       1.0  0.29967704458977096  0.845790579682216  0.2937038546660915  1.0000
  O   O15       1.0  0.2332767581101507  0.3142305645160377  0.7651665082667023  1.0000
  O   O16       1.0  0.4600693534594029  0.9872909553814679  0.7911723016295582  1.0000
  O   O17       1.0  0.7220791094005108  0.7899986514821649  0.4379017922183266  1.0000
  O   O18       1.0  0.5895281863922719  0.5853340410685632  0.6790488581755199  1.0000
  O   O19       1.0  0.9471431227575522  0.8073614882305264  0.9295439631678164  1.0000
  O   O20       1.0  0.2517617972334847  0.185920647054445  0.5061634274898097  1.0000
  O   O21       1.0  0.9244308183115209  0.5563529770006426  0.5060392612940632  1.0000
  O   O22       1.0  0.9485450084321201  0.02607822639402002  0.9170822007581592  1.0000
  O   O23       1.0  0.13557180028874427  0.4521705765509978  0.24661410349654034  1.0000
  O   O24       1.0  0.7906819360796362  0.9114048990304582  0.8402217769762501  1.0000
data_image124
_chemical_formula_structural       O24
_chemical_formula_sum              "O24"
_cell_length_a       6.65259782
_cell_length_b       6.76810209
_cell_length_c       7.45043691
_cell_angle_alpha    90.0
_cell_angle_beta     90.0
_cell_angle_gamma    90.0

_space_group_name_H-M_alt    "P 1"
_space_group_IT_number       1

loop_
  _space_group_symop_operation_xyz
  'x, y, z'

loop_
  _atom_site_type_symbol
  _atom_site_label
  _atom_site_symmetry_multiplicity
  _atom_site_fract_x
  _atom_site_fract_y
  _atom_site_fract_z
  _atom_site_occupancy
  O   O1        1.0  0.5655322367238114  0.9756642258471402  0.08901529351714998  1.0000
  O   O2        1.0  0.30860118320561014  0.5465123915346339  0.4587561771622859  1.0000
  O   O3        1.0  0.47425380861386657  0.4748980328440666  0.21869814896490425  1.0000
  O   O4        1.0  0.4978397008962929  0.6923969393828884  0.054535666669835337  1.0000
  O   O5        1.0  0.4119225760223344  0.49791930020728614  0.12516640141257085  1.0000
  O   O6        1.0  0.621864213142544  0.24994834593962878  0.9202357653994113  1.0000
  O   O7        1.0  0.2732381568348501  0.3407863072352484  0.19816700024239253  1.0000
  O   O8        1.0  0.4774590781889856  0.43559459561947733  0.6142872283489851  1.0000
  O   O9        1.0  0.8028355930291582  0.2192251646774821  0.9627717480616411  1.0000
  O   O10       1.0  0.9447609464696143  0.46144494190230034  0.6980473209405318  1.0000
  O   O11       1.0  0.05053232086356729  0.8268063672294375  0.6148943160660565  1.0000
  O   O12       1.0  0.6983407527441159  0.058090028585866094  0.5043193799210712  1.0000
  O   O13       1.0  0.02384019199234899  0.4340557949617505  0.3886250319192186  1.0000
  O   O14       1.0  0.22763199277687818  0.423210799403023  0.15365102619398385  1.0000
  O   O15       1.0  0.5749400961212814  0.5198380688671023  0.46732591185718775  1.0000
  O   O16       1.0  0.332730078836903  0.8993438943871297  0.6134034853894264  1.0000
  O   O17       1.0  0.9962205424671993  0.1462038716999814  0.6796623307745904  1.0000
  O   O18       1.0  0.5190068696610979  0.033455480384873226  0.14301377243828028  1.0000
  O   O19       1.0  0.6334678877028637  0.994590115500614  0.8597959359758534  1.0000
  O   O20       1.0  0.7811132738133892  0.7304739381652325  0.1328388707479462  1.0000
  O   O21       1.0  0.20339923459323472  0.3177623263327405  0.8594725687871687  1.0000
  O   O22       1.0  0.5447649406269193  0.5889544591773301  0.6156759192235768  1.0000
  O   O23       1.0  0.7338092679274268  0.26535304708522744  0.29288387346605305  1.0000
  O   O24       1.0  0.3018953853752464  0.867471796227619  0.3347561968257651  1.0000
data_image125
_chemical_formula_structural       O24
_chemical_formula_sum              "O24"
_cell_length_a       6.65259782
_cell_length_b       6.76810209
_cell_length_c       7.45043691
_cell_angle_alpha    90.0
_cell_angle_beta     90.0
_cell_angle_gamma    90.0

_space_group_name_H-M_alt    "P 1"
_space_group_IT_number       1

loop_
  _space_group_symop_operation_xyz
  'x, y, z'

loop_
  _atom_site_type_symbol
  _atom_site_label
  _atom_site_symmetry_multiplicity
  _atom_site_fract_x
  _atom_site_fract_y
  _atom_site_fract_z
  _atom_site_occupancy
  O   O1        1.0  0.5082712551084114  0.18629514007261605  0.5346771760669071  1.0000
  O   O2        1.0  0.5880917703034356  0.959436624427326  0.33426154544577  1.0000
  O   O3        1.0  0.7687748830066994  0.32763830095063895  0.31342504371423274  1.0000
  O   O4        1.0  0.25786528715252643  0.3731061283033341  0.3652751398476539  1.0000
  O   O5        1.0  0.7584301950410008  0.9766532055655262  0.9962797998159658  1.0000
  O   O6        1.0  0.604809581534937  0.3002130826935172  0.09638733672909439  1.0000
  O   O7        1.0  0.9792505297809839  0.17805899708764628  0.8129079951177118  1.0000
  O   O8        1.0  0.7939731329970527  0.04300027905264869  0.012807586757844547  1.0000
  O   O9        1.0  0.29404312699625734  0.11127872121869586  0.549544089983101  1.0000
  O   O10       1.0  0.23134564482461428  0.9574808593897615  0.8610026677488349  1.0000
  O   O11       1.0  0.2462175072869286  0.6768321811396163  0.025224062614142895  1.0000
  O   O12       1.0  0.5542563868220896  0.6333107659593225  0.07262971601448953  1.0000
  O   O13       1.0  0.5821589597326238  0.43636339623481035  0.6023221618961543  1.0000
  O   O14       1.0  0.39281000290066004  0.4378488348447718  0.5387458812328987  1.0000
  O   O15       1.0  0.4257606934988871  0.38936014054343104  0.11787700676359236  1.0000
  O   O16       1.0  0.5640413633082062  0.5866136982804164  0.6642002633307129  1.0000
  O   O17       1.0  0.18046238587703556  0.9284481041831896  0.7972379195562098  1.0000
  O   O18       1.0  0.14556482105399482  0.6153795520367566  0.4194381307461299  1.0000
  O   O19       1.0  0.3813268535886891  0.9779743668623269  0.956929957959801  1.0000
  O   O20       1.0  0.5903444970026612  0.24772775333258323  0.2672895217547193  1.0000
  O   O21       1.0  0.3645112717458687  0.9053456640103832  0.21997590881073847  1.0000
  O   O22       1.0  0.24230715353041887  0.8534100488759577  0.23075096774846315  1.0000
  O   O23       1.0  0.40559310698881745  0.773492549196817  0.4667658638500143  1.0000
  O   O24       1.0  0.13978986663278192  0.12473192397737876  0.7440437455661595  1.0000
data_image126
_chemical_formula_structural       O24
_chemical_formula_sum              "O24"
_cell_length_a       6.65259782
_cell_length_b       6.76810209
_cell_length_c       7.45043691
_cell_angle_alpha    90.0
_cell_angle_beta     90.0
_cell_angle_gamma    90.0

_space_group_name_H-M_alt    "P 1"
_space_group_IT_number       1

loop_
  _space_group_symop_operation_xyz
  'x, y, z'

loop_
  _atom_site_type_symbol
  _atom_site_label
  _atom_site_symmetry_multiplicity
  _atom_site_fract_x
  _atom_site_fract_y
  _atom_site_fract_z
  _atom_site_occupancy
  O   O1        1.0  0.8416144781149342  0.9356146595873724  0.8144808108918369  1.0000
  O   O2        1.0  0.32962305514956824  0.04354036750737578  0.6276375587040093  1.0000
  O   O3        1.0  0.9038671909365803  0.08434908208437264  0.649586578598246  1.0000
  O   O4        1.0  0.337518433596415  0.7461869317339733  0.5118021657181089  1.0000
  O   O5        1.0  0.5427618382382207  0.6862260409543524  0.8293296202609781  1.0000
  O   O6        1.0  0.813183173071593  0.785220877151005  0.7806895922403783  1.0000
  O   O7        1.0  0.7787948925979435  0.01645405509043485  0.9064580316917272  1.0000
  O   O8        1.0  0.45840011040854733  0.5981650285539217  0.48051447697434924  1.0000
  O   O9        1.0  0.2793182594323298  0.04806142310553696  0.477902509708656  1.0000
  O   O10       1.0  0.17305880664207507  0.8072505446034484  0.619388979714131  1.0000
  O   O11       1.0  0.9002242906717584  0.9344924765464384  0.4717029945459217  1.0000
  O   O12       1.0  0.8708895653253421  0.010890705045312643  0.1009415389271453  1.0000
  O   O13       1.0  0.7754901369771687  0.1628772501135245  0.9860117436619475  1.0000
  O   O14       1.0  0.16093572741374373  0.7583969662664458  0.40615989587968215  1.0000
  O   O15       1.0  0.8277525515877642  0.7984010898508132  0.6734694403130561  1.0000
  O   O16       1.0  0.4696238380856812  0.44599915167782456  0.17618185165338218  1.0000
  O   O17       1.0  0.9833945551654324  0.4176347755128518  0.16168275639938656  1.0000
  O   O18       1.0  0.6396398246433819  0.11424169084057212  0.3163643330335617  1.0000
  O   O19       1.0  0.13069323170930147  0.5143464669818059  0.1522164080524817  1.0000
  O   O20       1.0  0.7050077340099961  0.3067742857383564  0.3519462925614789  1.0000
  O   O21       1.0  0.1408459320637121  0.6622010373394005  0.8954421068774536  1.0000
  O   O22       1.0  0.8520152145065367  0.17087303579319268  0.8486886546015739  1.0000
  O   O23       1.0  0.0585354448412545  0.9581894443690544  0.16486220399383456  1.0000
  O   O24       1.0  0.026811946067027748  0.9936129553825594  0.596539045101963  1.0000
data_image127
_chemical_formula_structural       O24
_chemical_formula_sum              "O24"
_cell_length_a       6.65259782
_cell_length_b       6.76810209
_cell_length_c       7.45043691
_cell_angle_alpha    90.0
_cell_angle_beta     90.0
_cell_angle_gamma    90.0

_space_group_name_H-M_alt    "P 1"
_space_group_IT_number       1

loop_
  _space_group_symop_operation_xyz
  'x, y, z'

loop_
  _atom_site_type_symbol
  _atom_site_label
  _atom_site_symmetry_multiplicity
  _atom_site_fract_x
  _atom_site_fract_y
  _atom_site_fract_z
  _atom_site_occupancy
  O   O1        1.0  0.8860626566820429  0.6764334444815177  0.29428959742654115  1.0000
  O   O2        1.0  0.2226969136390835  0.9186464803060517  0.45376344927353784  1.0000
  O   O3        1.0  0.4235648423200473  0.13719039841089398  0.15153431380167603  1.0000
  O   O4        1.0  0.008796316491498146  0.8641842510551214  0.24816534810815938  1.0000
  O   O5        1.0  0.3344482565007638  0.5486016040231334  0.7143074277264532  1.0000
  O   O6        1.0  0.6934680819977075  0.8400593865662813  0.3336967839859426  1.0000
  O   O7        1.0  0.3521668562316336  0.06360996945295483  0.2274873200658476  1.0000
  O   O8        1.0  0.4272447940456914  0.39367484307149425  0.7200461826723767  1.0000
  O   O9        1.0  0.6156994078774005  0.258735673429328  0.9754643369524274  1.0000
  O   O10       1.0  0.827043019258781  0.8409114870300982  0.9958007963432465  1.0000
  O   O11       1.0  0.06859776988858357  0.24503034388180822  0.011154535110108554  1.0000
  O   O12       1.0  0.9565340830013156  0.17870431672781706  0.6647921692347154  1.0000
  O   O13       1.0  0.5122615410073195  0.7362597631290555  0.4990699989721179  1.0000
  O   O14       1.0  0.5674998170579784  0.5753542245947756  0.054107679810840636  1.0000
  O   O15       1.0  0.8871524151763879  0.9206341933459044  0.6333609540015459  1.0000
  O   O16       1.0  0.1687851594761014  0.23467626568162814  0.7288302653469145  1.0000
  O   O17       1.0  0.45178531005512923  0.4965404971735552  0.5359669434983516  1.0000
  O   O18       1.0  0.8180747413571225  0.9401709994272096  0.01000197121175006  1.0000
  O   O19       1.0  0.06338821208919398  0.09396089549409226  0.6070338110439479  1.0000
  O   O20       1.0  0.9015438712667674  0.6276125638978556  0.3495383932022378  1.0000
  O   O21       1.0  0.8477156290982748  0.5419065519236028  0.01244802656583488  1.0000
  O   O22       1.0  0.969056733418256  0.08388047758489847  0.5971959554590285  1.0000
  O   O23       1.0  0.5138215443585068  0.005139295783010311  0.8267688968917355  1.0000
  O   O24       1.0  0.48259222647175193  0.7780824090586975  0.3551744460128248  1.0000
data_image128
_chemical_formula_structural       O24
_chemical_formula_sum              "O24"
_cell_length_a       6.65259782
_cell_length_b       6.76810209
_cell_length_c       7.45043691
_cell_angle_alpha    90.0
_cell_angle_beta     90.0
_cell_angle_gamma    90.0

_space_group_name_H-M_alt    "P 1"
_space_group_IT_number       1

loop_
  _space_group_symop_operation_xyz
  'x, y, z'

loop_
  _atom_site_type_symbol
  _atom_site_label
  _atom_site_symmetry_multiplicity
  _atom_site_fract_x
  _atom_site_fract_y
  _atom_site_fract_z
  _atom_site_occupancy
  O   O1        1.0  0.49783952395955566  0.49338267003622605  0.9259365971665829  1.0000
  O   O2        1.0  0.9321980905515375  0.3438415090786293  0.7069804579659831  1.0000
  O   O3        1.0  0.8004491248866543  0.3150838561123237  0.9853162225335836  1.0000
  O   O4        1.0  0.8242755187966395  0.754170463886112  0.6932641627354315  1.0000
  O   O5        1.0  0.6368662745517213  0.7670045690974803  0.44106587339774705  1.0000
  O   O6        1.0  0.4827701293397695  0.6430025303270668  0.9010837939567864  1.0000
  O   O7        1.0  0.9623277477148804  0.06397622835356742  0.6376485830405727  1.0000
  O   O8        1.0  0.35777431877795607  0.1445910016191192  0.07145557624426147  1.0000
  O   O9        1.0  0.32610426035535056  0.904084149908158  0.8134449012286495  1.0000
  O   O10       1.0  0.8588874748093076  0.08883821454946883  0.0809014846890932  1.0000
  O   O11       1.0  0.9832260223920457  0.7855908615747467  0.6387855213833973  1.0000
  O   O12       1.0  0.02516987011767924  0.6677900734357536  0.40238895441871136  1.0000
  O   O13       1.0  0.46822008161689155  0.07886454637628049  0.774610441934783  1.0000
  O   O14       1.0  0.7019236505148001  0.733905898523517  0.2848156769759953  1.0000
  O   O15       1.0  0.8838188156369142  0.26821574103087187  0.4155575414188206  1.0000
  O   O16       1.0  0.8358566404785961  0.8333783376147039  0.8238744975533336  1.0000
  O   O17       1.0  0.2697210832266137  0.7824501587310806  0.9607985022594221  1.0000
  O   O18       1.0  0.0020818693410546985  0.5489206233760342  0.4135209381929599  1.0000
  O   O19       1.0  0.9238371729152277  0.8789955234969966  0.034033486095722765  1.0000
  O   O20       1.0  0.1258485298603773  0.8618927703355439  0.9359349540900439  1.0000
  O   O21       1.0  0.8428403875932418  0.41451839020010084  0.8241130514652468  1.0000
  O   O22       1.0  0.26020919997245073  0.028279434773139656  0.5771057107485831  1.0000
  O   O23       1.0  0.18895507010165602  0.6894223613053327  0.7315782873774879  1.0000
  O   O24       1.0  0.8087993033695966  0.9098004689440131  0.9257843683008105  1.0000
data_image129
_chemical_formula_structural       O24
_chemical_formula_sum              "O24"
_cell_length_a       6.65259782
_cell_length_b       6.76810209
_cell_length_c       7.45043691
_cell_angle_alpha    90.0
_cell_angle_beta     90.0
_cell_angle_gamma    90.0

_space_group_name_H-M_alt    "P 1"
_space_group_IT_number       1

loop_
  _space_group_symop_operation_xyz
  'x, y, z'

loop_
  _atom_site_type_symbol
  _atom_site_label
  _atom_site_symmetry_multiplicity
  _atom_site_fract_x
  _atom_site_fract_y
  _atom_site_fract_z
  _atom_site_occupancy
  O   O1        1.0  0.6946907402743818  0.8218145803512016  0.3487404705956578  1.0000
  O   O2        1.0  0.10832270568062086  0.26794602011796087  0.6454927631712053  1.0000
  O   O3        1.0  0.4925019545480609  0.04748044034931809  0.045939266914501786  1.0000
  O   O4        1.0  0.2456025360879721  0.7895437870174646  0.8301189752528444  1.0000
  O   O5        1.0  0.5997308180085383  0.9668870909808902  0.5111137966159731  1.0000
  O   O6        1.0  0.867092510452494  0.5303755758795887  0.17745856870897114  1.0000
  O   O7        1.0  0.4459762267797487  0.20263598184101284  0.05432147369720042  1.0000
  O   O8        1.0  0.6721512229123618  0.751170945353806  0.051867427860088355  1.0000
  O   O9        1.0  0.7377412416826701  0.44523955427575856  0.47748792872880585  1.0000
  O   O10       1.0  0.7608205150754657  0.09541136436746456  0.6622738356672926  1.0000
  O   O11       1.0  0.5723106436780654  0.4445865692105144  0.3467810939764604  1.0000
  O   O12       1.0  0.29565949307288975  0.1814690523315221  0.3148439429933205  1.0000
  O   O13       1.0  0.9645494115829933  0.6247580167837441  0.054879709088709205  1.0000
  O   O14       1.0  0.45466007065260783  0.5758378938189708  0.27920000220183283  1.0000
  O   O15       1.0  0.31343444663798437  0.2669843246694654  0.2333029448054731  1.0000
  O   O16       1.0  0.8746957799885422  0.49373240006389096  0.8799375763628632  1.0000
  O   O17       1.0  0.8707622387446463  0.2033184275496751  0.2507000543882896  1.0000
  O   O18       1.0  0.9598721395159373  0.4305838852014858  0.6889447573339567  1.0000
  O   O19       1.0  0.6920060203701723  0.6946381971356459  0.8210870104376227  1.0000
  O   O20       1.0  0.2697489041602239  0.7455047988332808  0.0013923768419772387  1.0000
  O   O21       1.0  0.7140071489448019  0.9064614392700605  0.6666039382689632  1.0000
  O   O22       1.0  0.9534748955629766  0.7121151508763433  0.9990869774483144  1.0000
  O   O23       1.0  0.18248286237940192  0.9560611209089984  0.2531268985476345  1.0000
  O   O24       1.0  0.25770557555370033  0.8454438631888479  0.40529784839600325  1.0000
data_image130
_chemical_formula_structural       O24
_chemical_formula_sum              "O24"
_cell_length_a       6.65259782
_cell_length_b       6.76810209
_cell_length_c       7.45043691
_cell_angle_alpha    90.0
_cell_angle_beta     90.0
_cell_angle_gamma    90.0

_space_group_name_H-M_alt    "P 1"
_space_group_IT_number       1

loop_
  _space_group_symop_operation_xyz
  'x, y, z'

loop_
  _atom_site_type_symbol
  _atom_site_label
  _atom_site_symmetry_multiplicity
  _atom_site_fract_x
  _atom_site_fract_y
  _atom_site_fract_z
  _atom_site_occupancy
  O   O1        1.0  0.9547088478866499  0.11422510141892417  0.998302143154433  1.0000
  O   O2        1.0  0.07805623926105909  0.22292016237042844  0.7966641940001864  1.0000
  O   O3        1.0  0.961953325313516  0.6104701989097521  0.01606348471250385  1.0000
  O   O4        1.0  0.82317834260175  0.078029784723185  0.45246402923658025  1.0000
  O   O5        1.0  0.5162589988613036  0.5123294460718171  0.7290760482428595  1.0000
  O   O6        1.0  0.679977044230327  0.5067141106119379  0.5004578502848744  1.0000
  O   O7        1.0  0.6329827104782453  0.33255145681323484  0.6821948892902583  1.0000
  O   O8        1.0  0.48167534614913166  0.47746152873151004  0.2948411816469161  1.0000
  O   O9        1.0  0.40256026650604326  0.26625915479962714  0.6809674436080968  1.0000
  O   O10       1.0  0.5243805857026018  0.7154309056932107  0.49753646949102404  1.0000
  O   O11       1.0  0.7966941222548485  0.27347769285552204  0.18737687449902296  1.0000
  O   O12       1.0  0.3075183652108535  0.3821890789549798  0.0560348219005391  1.0000
  O   O13       1.0  0.2617065804079175  0.1539361767936498  0.6901915398193523  1.0000
  O   O14       1.0  0.7106430573621765  0.8199006806826219  0.8767853221506812  1.0000
  O   O15       1.0  0.3501180202001706  0.4940711045637727  0.6795653193257749  1.0000
  O   O16       1.0  0.8422675738111138  0.11366655101301149  0.18045152444392443  1.0000
  O   O17       1.0  0.3634076836751774  0.1830530819715932  0.6518838079355191  1.0000
  O   O18       1.0  0.9312405809978372  0.23069752259470988  0.21228700125357136  1.0000
  O   O19       1.0  0.8049676279479172  0.3946765690925531  0.14913142728619277  1.0000
  O   O20       1.0  0.5046022095484659  0.19176113634603098  0.06147910363506526  1.0000
  O   O21       1.0  0.06987602982007957  0.8348563405452296  0.29164447262883186  1.0000
  O   O22       1.0  0.09025402506813407  0.3528625649632886  0.9687687922269106  1.0000
  O   O23       1.0  0.41317205980885774  0.19674098435825726  0.041594890353735536  1.0000
  O   O24       1.0  0.49780045088846236  0.5417192244785838  0.3042369339382276  1.0000
data_image131
_chemical_formula_structural       O24
_chemical_formula_sum              "O24"
_cell_length_a       6.65259782
_cell_length_b       6.76810209
_cell_length_c       7.45043691
_cell_angle_alpha    90.0
_cell_angle_beta     90.0
_cell_angle_gamma    90.0

_space_group_name_H-M_alt    "P 1"
_space_group_IT_number       1

loop_
  _space_group_symop_operation_xyz
  'x, y, z'

loop_
  _atom_site_type_symbol
  _atom_site_label
  _atom_site_symmetry_multiplicity
  _atom_site_fract_x
  _atom_site_fract_y
  _atom_site_fract_z
  _atom_site_occupancy
  O   O1        1.0  0.9873705842182972  0.29582267375371885  0.5501822823716793  1.0000
  O   O2        1.0  0.23010174292903685  0.7602013535797596  0.4765779825102072  1.0000
  O   O3        1.0  0.9189733266830444  0.06290155427996069  0.28136770613491535  1.0000
  O   O4        1.0  0.7160844661848387  0.7185770419891924  0.7767384660401149  1.0000
  O   O5        1.0  0.2870592418476008  0.4190936882077949  0.9949088459834456  1.0000
  O   O6        1.0  0.5523648378439248  0.4981970387743786  0.24715496064163744  1.0000
  O   O7        1.0  0.2779304565920029  0.37982535414630547  0.9768973216414452  1.0000
  O   O8        1.0  0.09117635563598014  0.5515568004339002  0.9242469740784145  1.0000
  O   O9        1.0  0.750826425908599  0.01280675278394483  0.9102681373187806  1.0000
  O   O10       1.0  0.12218161838245578  0.9020082640345208  0.6881376373348758  1.0000
  O   O11       1.0  0.5185781298787333  0.45136559125967324  0.8101418424630538  1.0000
  O   O12       1.0  0.680497007095255  0.16116075590252876  0.07577914372086525  1.0000
  O   O13       1.0  0.9492139096837491  0.5604314670199528  0.31690636498387903  1.0000
  O   O14       1.0  0.697657554759644  0.20734647382050753  0.2005479514482431  1.0000
  O   O15       1.0  0.5163432049448602  0.4395175806712359  0.619031677255407  1.0000
  O   O16       1.0  0.17577847326174378  0.3597680677776225  0.3668191737961024  1.0000
  O   O17       1.0  0.8233523204689845  0.4044749876484275  0.6747484208099195  1.0000
  O   O18       1.0  0.058629664263207815  0.16359301927150227  0.09109959640773013  1.0000
  O   O19       1.0  0.06727428353042342  0.34352594683878124  0.897959734138567  1.0000
  O   O20       1.0  0.7543523178901523  0.8819037923240103  0.429507163236849  1.0000
  O   O21       1.0  0.6107571978009219  0.38094133872073144  0.8016609636833891  1.0000
  O   O22       1.0  0.5370778001379222  0.11842772015370429  0.863394062500447  1.0000
  O   O23       1.0  0.31620206660591066  0.6624094694016094  0.26304311712738127  1.0000
  O   O24       1.0  0.36021713085938245  0.26414384599775076  0.7628799787489697  1.0000
data_image132
_chemical_formula_structural       O24
_chemical_formula_sum              "O24"
_cell_length_a       6.65259782
_cell_length_b       6.76810209
_cell_length_c       7.45043691
_cell_angle_alpha    90.0
_cell_angle_beta     90.0
_cell_angle_gamma    90.0

_space_group_name_H-M_alt    "P 1"
_space_group_IT_number       1

loop_
  _space_group_symop_operation_xyz
  'x, y, z'

loop_
  _atom_site_type_symbol
  _atom_site_label
  _atom_site_symmetry_multiplicity
  _atom_site_fract_x
  _atom_site_fract_y
  _atom_site_fract_z
  _atom_site_occupancy
  O   O1        1.0  0.18677409812516998  0.7635342112080252  0.8001166310277767  1.0000
  O   O2        1.0  0.6913251590758591  0.2373105437727645  0.2052416404185351  1.0000
  O   O3        1.0  0.37807744345627725  0.8652850616490468  0.05329825868830085  1.0000
  O   O4        1.0  0.7410206714412197  0.8960487914737314  0.8610295581165701  1.0000
  O   O5        1.0  0.3138018331374042  0.15194658456312027  0.4258689864363987  1.0000
  O   O6        1.0  0.11053188983350992  0.3343437419971451  0.39355147490277886  1.0000
  O   O7        1.0  0.1334834632143611  0.11709371994948015  0.23238214425509796  1.0000
  O   O8        1.0  0.801964534970466  0.23656599031528458  0.9970110325125461  1.0000
  O   O9        1.0  0.9352229174546665  0.13849077445047442  0.28203840399510227  1.0000
  O   O10       1.0  0.01496969285653904  0.12432163208723068  0.46701692051283317  1.0000
  O   O11       1.0  0.909870610688813  0.1672786848503165  0.4329222165979445  1.0000
  O   O12       1.0  0.9858913024654612  0.9806564976461232  0.09326784196309745  1.0000
  O   O13       1.0  0.830644137764466  0.16353141493164003  0.6975188705255277  1.0000
  O   O14       1.0  0.009573838498909026  0.49114558624569327  0.404637900472153  1.0000
  O   O15       1.0  0.5225680393050425  0.5648352643474936  0.08174816682003438  1.0000
  O   O16       1.0  0.11107300105504692  0.6571900561684743  0.6004292145371437  1.0000
  O   O17       1.0  0.006208764621987939  0.13522947358433157  0.4411173482367303  1.0000
  O   O18       1.0  0.5707659384206636  0.2981305104549392  0.449154716799967  1.0000
  O   O19       1.0  0.42612204828765243  0.530350448039826  0.41957801149692386  1.0000
  O   O20       1.0  0.36402390780858696  0.5349396030069329  0.4177192187635228  1.0000
  O   O21       1.0  0.8353380170137825  0.3367356661474332  0.7088840116630308  1.0000
  O   O22       1.0  0.8426318448036909  0.911117309005931  0.9978940836153924  1.0000
  O   O23       1.0  0.5667573967948556  0.2728412276828749  0.5462129699299112  1.0000
  O   O24       1.0  0.7113595613045618  0.09107780718477443  0.991359801730141  1.0000
data_image133
_chemical_formula_structural       O24
_chemical_formula_sum              "O24"
_cell_length_a       6.65259782
_cell_length_b       6.76810209
_cell_length_c       7.45043691
_cell_angle_alpha    90.0
_cell_angle_beta     90.0
_cell_angle_gamma    90.0

_space_group_name_H-M_alt    "P 1"
_space_group_IT_number       1

loop_
  _space_group_symop_operation_xyz
  'x, y, z'

loop_
  _atom_site_type_symbol
  _atom_site_label
  _atom_site_symmetry_multiplicity
  _atom_site_fract_x
  _atom_site_fract_y
  _atom_site_fract_z
  _atom_site_occupancy
  O   O1        1.0  0.30713225025101565  0.9906143485495704  0.06857614911859855  1.0000
  O   O2        1.0  0.009874789784589666  0.3241484062746167  0.4944697542232461  1.0000
  O   O3        1.0  0.13220951752737164  0.5617585267173126  0.5213608796475455  1.0000
  O   O4        1.0  0.6244522145134397  0.6132686620112509  0.9073819007098791  1.0000
  O   O5        1.0  0.4930403092002962  0.17366236084490083  0.4412617875204887  1.0000
  O   O6        1.0  0.8663173655513674  0.5381392893614247  0.8108736495487392  1.0000
  O   O7        1.0  0.5803937073578709  0.23742357967421412  0.8537395099410787  1.0000
  O   O8        1.0  0.6380261889426038  0.9892304671229795  0.9917238516227371  1.0000
  O   O9        1.0  0.41667309279728215  0.3066904099250678  0.3485666330670938  1.0000
  O   O10       1.0  0.7765682209283113  0.6024327540653758  0.8939024472419987  1.0000
  O   O11       1.0  0.882857536082156  0.7654055485618301  0.5906421281397343  1.0000
  O   O12       1.0  0.32084885716903955  0.7147705641109496  0.05328789178747684  1.0000
  O   O13       1.0  0.15867734332277905  0.4924511465942487  0.4906485031824559  1.0000
  O   O14       1.0  0.8414424824295565  0.16114218067377806  0.1915850869845599  1.0000
  O   O15       1.0  0.11192016338463873  0.9957171401474625  0.36314517236314714  1.0000
  O   O16       1.0  0.7068253804463893  0.43261850747512653  0.756463787285611  1.0000
  O   O17       1.0  0.8591576226754114  0.6966104299062863  0.5034467217992642  1.0000
  O   O18       1.0  0.6293685908603948  0.8098544678941835  0.313202652730979  1.0000
  O   O19       1.0  0.794077833998017  0.042320785752963275  0.6542253220104612  1.0000
  O   O20       1.0  0.07139970746356994  0.4830419062054716  0.9405635775765404  1.0000
  O   O21       1.0  0.865066975402442  0.12518937198910862  0.5122795116039924  1.0000
  O   O22       1.0  0.6262522703036666  0.7377470902865753  0.06564733479171991  1.0000
  O   O23       1.0  0.6999885442201048  0.09979001569990942  0.2179084068047814  1.0000
  O   O24       1.0  0.587429124629125  0.10597270444850437  0.01509665884077549  1.0000
data_image134
_chemical_formula_structural       O24
_chemical_formula_sum              "O24"
_cell_length_a       6.65259782
_cell_length_b       6.76810209
_cell_length_c       7.45043691
_cell_angle_alpha    90.0
_cell_angle_beta     90.0
_cell_angle_gamma    90.0

_space_group_name_H-M_alt    "P 1"
_space_group_IT_number       1

loop_
  _space_group_symop_operation_xyz
  'x, y, z'

loop_
  _atom_site_type_symbol
  _atom_site_label
  _atom_site_symmetry_multiplicity
  _atom_site_fract_x
  _atom_site_fract_y
  _atom_site_fract_z
  _atom_site_occupancy
  O   O1        1.0  0.0637641310604522  0.2741199951797171  0.0258096732723061  1.0000
  O   O2        1.0  0.5590187592606526  0.8343032049015164  0.18046284062438644  1.0000
  O   O3        1.0  0.5994771322002634  0.06966153299435973  0.9355594099033624  1.0000
  O   O4        1.0  0.563231966632884  0.7215187008259818  0.34919762524441467  1.0000
  O   O5        1.0  0.6972402511746623  0.517378015210852  0.030082225712249056  1.0000
  O   O6        1.0  0.8535341895185411  0.6909579019993544  0.15052333287894726  1.0000
  O   O7        1.0  0.6237790109225898  0.5339326413231902  0.9665390281006694  1.0000
  O   O8        1.0  0.4266188754700124  0.24881675565848127  0.22827463782050472  1.0000
  O   O9        1.0  0.36817845290352125  0.4551835314487107  0.3434243225638056  1.0000
  O   O10       1.0  0.7096969319682103  0.06931425718357787  0.7276484880931093  1.0000
  O   O11       1.0  0.2975053898990154  0.7208024458377622  0.07737180963158607  1.0000
  O   O12       1.0  0.9795003576437011  0.10745428362861276  0.261558331316337  1.0000
  O   O13       1.0  0.22008330807148013  0.522628293838352  0.5591906863846816  1.0000
  O   O14       1.0  0.14540616056183353  0.4834684082888998  0.07227847166359425  1.0000
  O   O15       1.0  0.7111390149802901  0.5663656543474644  0.051195296458899975  1.0000
  O   O16       1.0  0.03533152071759105  0.4757115796674043  0.1785058518871665  1.0000
  O   O17       1.0  0.9513328748289496  0.8577499333769083  0.47536560366279446  1.0000
  O   O18       1.0  0.8407250013478915  0.1897450597389252  0.7214329306734726  1.0000
  O   O19       1.0  0.8997687416122062  0.050570598046761006  0.846550356480293  1.0000
  O   O20       1.0  0.9872065217932686  0.5330118678102735  0.2121407820377499  1.0000
  O   O21       1.0  0.26146129687913344  0.918896344199311  0.8373633258161135  1.0000
  O   O22       1.0  0.07123963884077966  0.6000946351559833  0.04485704284161329  1.0000
  O   O23       1.0  0.008004256407730281  0.510951010932331  0.03299324674298987  1.0000
  O   O24       1.0  0.12675627088174224  0.047364084457512945  0.691673970548436  1.0000
data_image135
_chemical_formula_structural       O24
_chemical_formula_sum              "O24"
_cell_length_a       6.65259782
_cell_length_b       6.76810209
_cell_length_c       7.45043691
_cell_angle_alpha    90.0
_cell_angle_beta     90.0
_cell_angle_gamma    90.0

_space_group_name_H-M_alt    "P 1"
_space_group_IT_number       1

loop_
  _space_group_symop_operation_xyz
  'x, y, z'

loop_
  _atom_site_type_symbol
  _atom_site_label
  _atom_site_symmetry_multiplicity
  _atom_site_fract_x
  _atom_site_fract_y
  _atom_site_fract_z
  _atom_site_occupancy
  O   O1        1.0  0.9980850118590752  0.4929890370603971  0.8210983047902118  1.0000
  O   O2        1.0  0.6231086487241555  0.956278417725116  0.28366208355873823  1.0000
  O   O3        1.0  0.9849826757563278  0.41163113876245916  0.043967040022835135  1.0000
  O   O4        1.0  0.4519727624137886  0.5330662478227168  0.9855254142457852  1.0000
  O   O5        1.0  0.08730499164084904  0.30375864330562763  0.9148535380954854  1.0000
  O   O6        1.0  0.027735740179196  0.7049457244575024  0.3066740946378559  1.0000
  O   O7        1.0  0.9391879270406207  0.8302516638068482  0.7768039745860733  1.0000
  O   O8        1.0  0.6584974109136965  0.3378590276115574  0.1538215454766032  1.0000
  O   O9        1.0  0.5524172325385734  0.9085143221309409  0.28284410759806633  1.0000
  O   O10       1.0  0.05223542984458618  0.17668515379773453  0.3784264458954567  1.0000
  O   O11       1.0  0.6562812638003379  0.772163585468661  0.11871586856432259  1.0000
  O   O12       1.0  0.3621580592589453  0.8693382635246962  0.3614049496827647  1.0000
  O   O13       1.0  0.9899118750181515  0.29240618261974305  0.10692209418630227  1.0000
  O   O14       1.0  0.5176181302522309  0.18279888393590227  0.999958515050821  1.0000
  O   O15       1.0  0.22615511738695204  0.2965881642885506  0.8809164690319449  1.0000
  O   O16       1.0  0.15459885634481907  0.33379506604978815  0.8784096983727068  1.0000
  O   O17       1.0  0.051295722369104624  0.7120556361041963  0.9643711319804424  1.0000
  O   O18       1.0  0.22639277325470175  0.21394828823395073  0.6619834589655511  1.0000
  O   O19       1.0  0.6029526230122428  0.437724452232942  0.5280171881313436  1.0000
  O   O20       1.0  0.324899458209984  0.4555037959071342  0.2825727852759883  1.0000
  O   O21       1.0  0.7246421247855324  0.580863444134593  0.3746574440738186  1.0000
  O   O22       1.0  0.14752240641973913  0.9977122143609449  0.486019772477448  1.0000
  O   O23       1.0  0.32417923770844936  0.8976609146320698  0.8832582394825295  1.0000
  O   O24       1.0  0.31586456240620464  0.30146254840656184  0.5251151991542429  1.0000
data_image136
_chemical_formula_structural       O24
_chemical_formula_sum              "O24"
_cell_length_a       6.65259782
_cell_length_b       6.76810209
_cell_length_c       7.45043691
_cell_angle_alpha    90.0
_cell_angle_beta     90.0
_cell_angle_gamma    90.0

_space_group_name_H-M_alt    "P 1"
_space_group_IT_number       1

loop_
  _space_group_symop_operation_xyz
  'x, y, z'

loop_
  _atom_site_type_symbol
  _atom_site_label
  _atom_site_symmetry_multiplicity
  _atom_site_fract_x
  _atom_site_fract_y
  _atom_site_fract_z
  _atom_site_occupancy
  O   O1        1.0  0.3835370796296047  0.7676535655218686  0.9256940511986613  1.0000
  O   O2        1.0  0.7556097068063536  0.08793879428412765  0.7818049041379709  1.0000
  O   O3        1.0  0.704882915946655  0.27407545200549066  0.7551064561121166  1.0000
  O   O4        1.0  0.8615846568427514  0.1563101017381996  0.7419378726190189  1.0000
  O   O5        1.0  0.0960123497643508  0.5058051536907442  0.38227304571773857  1.0000
  O   O6        1.0  0.014970857184380293  0.8852425735676661  0.7499487050808966  1.0000
  O   O7        1.0  0.8605675097714993  0.9798559868359007  0.6609347610501572  1.0000
  O   O8        1.0  0.9097087889094837  0.6763384328805842  0.10394514091603924  1.0000
  O   O9        1.0  0.7760104709450388  0.4338103955378756  0.5195799516077386  1.0000
  O   O10       1.0  0.16958730346232187  0.8443695030873641  0.32724777900148183  1.0000
  O   O11       1.0  0.35474860592512414  0.12151365427416749  0.5948822420323268  1.0000
  O   O12       1.0  0.8114931612508371  0.767718578223139  0.6301980462158099  1.0000
  O   O13       1.0  0.0629593834746629  0.7973028320120648  0.5453385196160525  1.0000
  O   O14       1.0  0.9319948635529727  0.20787337754154578  0.21288140950491652  1.0000
  O   O15       1.0  0.03202052786946297  0.1678303841035813  0.6400905787013471  1.0000
  O   O16       1.0  0.7761768794152886  0.17140454711625353  0.9832424481865019  1.0000
  O   O17       1.0  0.03505889291409403  0.8403158655855805  0.2762218693678733  1.0000
  O   O18       1.0  0.4801589101916761  0.10512555333116325  0.012771479377988726  1.0000
  O   O19       1.0  0.8155489431956084  0.5435648103593849  0.709154189156834  1.0000
  O   O20       1.0  0.012971492717042565  0.6458340082608629  0.969789188937284  1.0000
  O   O21       1.0  0.8495698159169933  0.6270755514269695  0.9545201711007394  1.0000
  O   O22       1.0  0.10576555877923965  0.6416036364389583  0.18073895759880543  1.0000
  O   O23       1.0  0.14625615149270743  0.09772442365101597  0.4871500345761888  1.0000
  O   O24       1.0  0.05280520301312208  0.6537137214327231  0.854547621216625  1.0000
data_image137
_chemical_formula_structural       O24
_chemical_formula_sum              "O24"
_cell_length_a       6.65259782
_cell_length_b       6.76810209
_cell_length_c       7.45043691
_cell_angle_alpha    90.0
_cell_angle_beta     90.0
_cell_angle_gamma    90.0

_space_group_name_H-M_alt    "P 1"
_space_group_IT_number       1

loop_
  _space_group_symop_operation_xyz
  'x, y, z'

loop_
  _atom_site_type_symbol
  _atom_site_label
  _atom_site_symmetry_multiplicity
  _atom_site_fract_x
  _atom_site_fract_y
  _atom_site_fract_z
  _atom_site_occupancy
  O   O1        1.0  0.47991522128722863  0.08103213928825426  0.8541711731813848  1.0000
  O   O2        1.0  0.6483117758425578  0.5778715213527903  0.5813481707300525  1.0000
  O   O3        1.0  0.5688135663513094  0.426104539539665  0.62796373560559  1.0000
  O   O4        1.0  0.6088770265632775  0.47908121650107205  0.4685466131522844  1.0000
  O   O5        1.0  0.5933034161571413  0.7713292849075515  0.2134745946386829  1.0000
  O   O6        1.0  0.8470175410620868  0.9870288622332737  0.10108552081510425  1.0000
  O   O7        1.0  0.8410139288789651  0.48904900992056355  0.1677976786158979  1.0000
  O   O8        1.0  0.40526708276593126  0.4609874628367834  0.6971567671189405  1.0000
  O   O9        1.0  0.0600217751780292  0.7142534060985781  0.5651058299990837  1.0000
  O   O10       1.0  0.6324797144188778  0.057810197933577  0.3777581141475821  1.0000
  O   O11       1.0  0.2685746669303626  0.2825683167029638  0.9287671936908737  1.0000
  O   O12       1.0  0.9609418697655201  0.689235364086926  0.15550614753738046  1.0000
  O   O13       1.0  0.8699316405545687  0.036195462686009705  0.7621167284669355  1.0000
  O   O14       1.0  0.26753065281081945  0.02671660453779623  0.705455434974283  1.0000
  O   O15       1.0  0.6126058713998646  0.30098664993420243  0.7497656610794365  1.0000
  O   O16       1.0  0.8659718753769994  0.055477501649875194  0.1739402476232499  1.0000
  O   O17       1.0  0.17787828168366104  0.12073089939076453  0.5175670557364356  1.0000
  O   O18       1.0  0.6396193403234065  0.8831011142610805  0.35432240640511736  1.0000
  O   O19       1.0  0.8650633195356932  0.5058787070447579  0.1588886589743197  1.0000
  O   O20       1.0  0.4137773981783539  0.9306222572922707  0.5985858417116106  1.0000
  O   O21       1.0  0.8895348575897515  0.5332269407808781  0.5614810563274659  1.0000
  O   O22       1.0  0.006370289484038949  0.5513491913443431  0.07551867747679353  1.0000
  O   O23       1.0  0.7150697786128148  0.2854902469916851  0.2268460249179043  1.0000
  O   O24       1.0  0.7621091915061697  0.7538740750751458  0.3768301580566913  1.0000
data_image138
_chemical_formula_structural       O24
_chemical_formula_sum              "O24"
_cell_length_a       6.65259782
_cell_length_b       6.76810209
_cell_length_c       7.45043691
_cell_angle_alpha    90.0
_cell_angle_beta     90.0
_cell_angle_gamma    90.0

_space_group_name_H-M_alt    "P 1"
_space_group_IT_number       1

loop_
  _space_group_symop_operation_xyz
  'x, y, z'

loop_
  _atom_site_type_symbol
  _atom_site_label
  _atom_site_symmetry_multiplicity
  _atom_site_fract_x
  _atom_site_fract_y
  _atom_site_fract_z
  _atom_site_occupancy
  O   O1        1.0  0.29329492268152535  0.18201445636555036  0.15355230425484478  1.0000
  O   O2        1.0  0.2612095508720813  0.19047814467921853  0.8515409130195621  1.0000
  O   O3        1.0  0.5460021648323163  0.8001259731827304  0.15402225265279412  1.0000
  O   O4        1.0  0.3188286492950283  0.6058715822873637  0.035735683395614615  1.0000
  O   O5        1.0  0.15344083242234774  0.20561085411463864  0.5786436946073081  1.0000
  O   O6        1.0  0.5595871764235198  0.7343534181127325  0.7904418066609651  1.0000
  O   O7        1.0  0.4146741250260675  0.5739510760759003  0.851812822278589  1.0000
  O   O8        1.0  0.49041599669726565  0.257398143527098  0.6884582287348167  1.0000
  O   O9        1.0  0.16053694518632255  0.9773788886668626  0.07960878557059914  1.0000
  O   O10       1.0  0.0784130862011807  0.11331960503594019  0.4407635501338518  1.0000
  O   O11       1.0  0.776830792077817  0.9967536498443224  0.07919243047945201  1.0000
  O   O12       1.0  0.43674356502015144  0.9365938792470843  0.6001358600333333  1.0000
  O   O13       1.0  0.4459047875570832  0.7198275548871607  0.4012724699568935  1.0000
  O   O14       1.0  0.06530765281058848  0.05511852988274768  0.4264458385296166  1.0000
  O   O15       1.0  0.32635263638803735  0.6972482211422175  0.8563709589652717  1.0000
  O   O16       1.0  0.020666593220084906  0.02195508044678718  0.4493333650752902  1.0000
  O   O17       1.0  0.18285059940535575  0.14776395773515105  0.5963879952032585  1.0000
  O   O18       1.0  0.931510591879487  0.42437185904418584  0.8865836500772275  1.0000
  O   O19       1.0  0.42276315601338865  0.16832494118716568  0.9847213478060439  1.0000
  O   O20       1.0  0.6627996728057042  0.19990183092886582  0.7553838454186916  1.0000
  O   O21       1.0  0.07606537280116754  0.6046346922521479  0.7777397020836361  1.0000
  O   O22       1.0  0.013828465715050697  0.6663535904372111  0.050686842296272516  1.0000
  O   O23       1.0  0.3164376406930387  0.5830535702552879  0.5343365143053234  1.0000
  O   O24       1.0  0.045535058598034084  0.13759754007332958  0.9768285846803337  1.0000
data_image139
_chemical_formula_structural       O24
_chemical_formula_sum              "O24"
_cell_length_a       6.65259782
_cell_length_b       6.76810209
_cell_length_c       7.45043691
_cell_angle_alpha    90.0
_cell_angle_beta     90.0
_cell_angle_gamma    90.0

_space_group_name_H-M_alt    "P 1"
_space_group_IT_number       1

loop_
  _space_group_symop_operation_xyz
  'x, y, z'

loop_
  _atom_site_type_symbol
  _atom_site_label
  _atom_site_symmetry_multiplicity
  _atom_site_fract_x
  _atom_site_fract_y
  _atom_site_fract_z
  _atom_site_occupancy
  O   O1        1.0  0.567758794670226  0.6072861040975113  0.39557371620321646  1.0000
  O   O2        1.0  0.9737004035032442  0.4203339108498767  0.46955726903979667  1.0000
  O   O3        1.0  0.09127161046490073  0.6399797096382827  0.43610340263694525  1.0000
  O   O4        1.0  0.3791069830185734  0.1933354390785098  0.3615827098619775  1.0000
  O   O5        1.0  0.695056418524473  0.21740942304313648  0.043776988866738975  1.0000
  O   O6        1.0  0.9658532494213432  0.6672386665595695  0.35668324888683856  1.0000
  O   O7        1.0  0.6707665137837466  0.9777576319174841  0.040686554566491395  1.0000
  O   O8        1.0  0.9614444759499747  0.34867333981674165  0.41776471572666196  1.0000
  O   O9        1.0  0.18499668411095627  0.5454636805225164  0.204235187775339  1.0000
  O   O10       1.0  0.6386581455444684  0.15388738867477514  0.8187046920938883  1.0000
  O   O11       1.0  0.45988721679896116  0.3625571689044591  0.32301982410717756  1.0000
  O   O12       1.0  0.9439724241383374  0.30985616194084287  0.5963634599465877  1.0000
  O   O13       1.0  0.0008890021126717329  0.703007665113546  0.4174631866044365  1.0000
  O   O14       1.0  0.5686076289275661  0.2791680711088702  0.26062940730480477  1.0000
  O   O15       1.0  0.9786493905121461  0.5689664764795452  0.37846559192985296  1.0000
  O   O16       1.0  0.07557133515365422  0.9160460675484501  0.9474922067020088  1.0000
  O   O17       1.0  0.21577904105652124  0.979076053481549  0.5670495459780795  1.0000
  O   O18       1.0  0.21711027489436674  0.15715535133494996  0.5185706758638844  1.0000
  O   O19       1.0  0.5543903769212193  0.12465681630419567  0.9123973622336052  1.0000
  O   O20       1.0  0.2631294404854998  0.7487444869184401  0.18859270063694566  1.0000
  O   O21       1.0  0.17746687989802012  0.12159529494238086  0.3823714875616133  1.0000
  O   O22       1.0  0.6593657396733761  0.9715729543240741  0.5807587429881096  1.0000
  O   O23       1.0  0.04443520773202181  0.8012160754969955  0.8512772648246028  1.0000
  O   O24       1.0  0.7121327677741647  0.18501714526792057  0.5308793733129278  1.0000
data_image140
_chemical_formula_structural       O24
_chemical_formula_sum              "O24"
_cell_length_a       6.65259782
_cell_length_b       6.76810209
_cell_length_c       7.45043691
_cell_angle_alpha    90.0
_cell_angle_beta     90.0
_cell_angle_gamma    90.0

_space_group_name_H-M_alt    "P 1"
_space_group_IT_number       1

loop_
  _space_group_symop_operation_xyz
  'x, y, z'

loop_
  _atom_site_type_symbol
  _atom_site_label
  _atom_site_symmetry_multiplicity
  _atom_site_fract_x
  _atom_site_fract_y
  _atom_site_fract_z
  _atom_site_occupancy
  O   O1        1.0  0.44748860686377157  0.1123560144660587  0.7908858048758702  1.0000
  O   O2        1.0  0.2940850854211021  0.9656374417245388  0.03732460874016397  1.0000
  O   O3        1.0  0.4752895557321608  0.19109118881169707  0.7545918334508315  1.0000
  O   O4        1.0  0.47755400504684076  0.7482411757810041  0.8752706996965571  1.0000
  O   O5        1.0  0.7393026942736469  0.533122879875009  0.18906327240983956  1.0000
  O   O6        1.0  0.5836448282934725  0.4684568038210273  0.0027203699573874474  1.0000
  O   O7        1.0  0.10637249185128894  0.5492578031262383  0.2478948011994362  1.0000
  O   O8        1.0  0.197533713595476  0.16288432135479525  0.11957115108816652  1.0000
  O   O9        1.0  0.04279142113227863  0.012680501153226942  0.41210073651745915  1.0000
  O   O10       1.0  0.6147701205918565  0.12328340829117224  0.723173050879268  1.0000
  O   O11       1.0  0.42660801572492346  0.34644046396715567  0.37763465486932546  1.0000
  O   O12       1.0  0.5252030986594036  0.9410221911966801  0.6473720705835149  1.0000
  O   O13       1.0  0.20036256746971048  0.07518846867606044  0.3851532037369907  1.0000
  O   O14       1.0  0.26418867195025086  0.254516136192251  0.9592684478848241  1.0000
  O   O15       1.0  0.6580491482163779  0.8219965174794197  0.37409109552390873  1.0000
  O   O16       1.0  0.500862096901983  0.08442012639716268  0.11513779917731881  1.0000
  O   O17       1.0  0.7650009822100401  0.8317884390708059  0.21985151643457357  1.0000
  O   O18       1.0  0.9790505696073524  0.357298711212934  0.7351013849838637  1.0000
  O   O19       1.0  0.12941556915757246  0.9673688472248614  0.38167509145569056  1.0000
  O   O20       1.0  0.8992903468897566  0.12154852709500119  0.5896340458421037  1.0000
  O   O21       1.0  0.7799869625414431  0.27385969666647725  0.11703547916840762  1.0000
  O   O22       1.0  0.5680715637281537  0.003135680453851819  0.3013042523525655  1.0000
  O   O23       1.0  0.3432088871486485  0.27691725372824294  0.3111753042903729  1.0000
  O   O24       1.0  0.9818689927924424  0.777488520136103  0.33296862395945936  1.0000
data_image141
_chemical_formula_structural       O24
_chemical_formula_sum              "O24"
_cell_length_a       6.65259782
_cell_length_b       6.76810209
_cell_length_c       7.45043691
_cell_angle_alpha    90.0
_cell_angle_beta     90.0
_cell_angle_gamma    90.0

_space_group_name_H-M_alt    "P 1"
_space_group_IT_number       1

loop_
  _space_group_symop_operation_xyz
  'x, y, z'

loop_
  _atom_site_type_symbol
  _atom_site_label
  _atom_site_symmetry_multiplicity
  _atom_site_fract_x
  _atom_site_fract_y
  _atom_site_fract_z
  _atom_site_occupancy
  O   O1        1.0  0.5331177338957787  0.4392476873472333  0.15745935030281544  1.0000
  O   O2        1.0  0.8749973858666635  0.0887074857018888  0.1117653640685603  1.0000
  O   O3        1.0  0.74061829817947  0.9956942920107394  0.32378515927121043  1.0000
  O   O4        1.0  0.08475270999770146  0.26231360307428986  0.7982903535885271  1.0000
  O   O5        1.0  0.8825889323052252  0.5984700133558363  0.1630764181027189  1.0000
  O   O6        1.0  0.5341721980366856  0.39431549282744527  0.5187818182166666  1.0000
  O   O7        1.0  0.6217718302341382  0.40805190935498103  0.06540078914258629  1.0000
  O   O8        1.0  0.8032666292856447  0.5369939135853201  0.17417838197070523  1.0000
  O   O9        1.0  0.943058664444834  0.7362833574588876  0.9460249706171453  1.0000
  O   O10       1.0  0.9872498426993843  0.026046276470879093  0.29768953724124003  1.0000
  O   O11       1.0  0.2267418917035684  0.0783608834608458  0.35539714561309665  1.0000
  O   O12       1.0  0.4753236351534724  0.7978159473277628  0.9979315586388111  1.0000
  O   O13       1.0  0.8222519735281821  0.35522512532770634  0.9424395117675886  1.0000
  O   O14       1.0  0.40241685969522223  0.9947623834596016  0.38065341126639396  1.0000
  O   O15       1.0  0.2214804426766932  0.9599626273848116  0.4597821303177625  1.0000
  O   O16       1.0  0.283959491411224  0.06301248189993203  0.059521112125366926  1.0000
  O   O17       1.0  0.019969111192040145  0.33153333503287286  0.8754048497939948  1.0000
  O   O18       1.0  0.5890769618308695  0.6032111882923346  0.029882026428822428  1.0000
  O   O19       1.0  0.34010262257652357  0.5784475437249057  0.9148991033434868  1.0000
  O   O20       1.0  0.41880124248564243  0.21153238281840459  0.15000292717013508  1.0000
  O   O21       1.0  0.8473830108850962  0.14681734460464213  0.582958065555431  1.0000
  O   O22       1.0  0.3887296768371016  0.30132010229863226  0.6384662860073149  1.0000
  O   O23       1.0  0.5617057838244364  0.6961331735748981  0.4479223968228325  1.0000
  O   O24       1.0  0.3964630509726703  0.39574261737288907  0.6082866503857076  1.0000
data_image142
_chemical_formula_structural       O24
_chemical_formula_sum              "O24"
_cell_length_a       6.65259782
_cell_length_b       6.76810209
_cell_length_c       7.45043691
_cell_angle_alpha    90.0
_cell_angle_beta     90.0
_cell_angle_gamma    90.0

_space_group_name_H-M_alt    "P 1"
_space_group_IT_number       1

loop_
  _space_group_symop_operation_xyz
  'x, y, z'

loop_
  _atom_site_type_symbol
  _atom_site_label
  _atom_site_symmetry_multiplicity
  _atom_site_fract_x
  _atom_site_fract_y
  _atom_site_fract_z
  _atom_site_occupancy
  O   O1        1.0  0.7661088537424803  0.43118286971002817  0.6185386069118977  1.0000
  O   O2        1.0  0.5736662621384312  0.7345855581806973  0.46607149559713434  1.0000
  O   O3        1.0  0.298781524063088  0.3757371286628768  0.5878493009367958  1.0000
  O   O4        1.0  0.7749727577756857  0.897730914875865  0.8274729414843023  1.0000
  O   O5        1.0  0.058409098244737834  0.782040011123172  0.055636898177908733  1.0000
  O   O6        1.0  0.28960749390535057  0.08268324926029891  0.039138772059232  1.0000
  O   O7        1.0  0.8144929496384066  0.4013637066818774  0.6188253779546358  1.0000
  O   O8        1.0  0.3168233802425675  0.07925611303653568  0.5914497906378529  1.0000
  O   O9        1.0  0.9196536322124302  0.8771672878647223  0.5368756791576743  1.0000
  O   O10       1.0  0.39128187487949617  0.5720591460121796  0.05995178568264237  1.0000
  O   O11       1.0  0.7478791638277471  0.4742629749234766  0.2843854791717604  1.0000
  O   O12       1.0  0.7009487338364124  0.42608456779271364  0.7604293636977673  1.0000
  O   O13       1.0  0.3332455783674959  0.44938218721654266  0.965774432872422  1.0000
  O   O14       1.0  0.9920123319607228  0.21324044361244887  0.5729531095130369  1.0000
  O   O15       1.0  0.500108320498839  0.037018184550106525  0.09024084731936455  1.0000
  O   O16       1.0  0.1415455648675561  0.6795280978549272  0.29740968556143343  1.0000
  O   O17       1.0  0.6711033504689112  0.3925641152309254  0.24070623617444653  1.0000
  O   O18       1.0  0.9676179641392082  0.5939400979659695  0.5032508547301404  1.0000
  O   O19       1.0  0.24648550781421363  0.4638367836596444  0.2224987693480216  1.0000
  O   O20       1.0  0.7503658370114863  0.5039788518042769  0.13889266294427216  1.0000
  O   O21       1.0  0.03357660567417042  0.8495651632692898  0.10399369715014473  1.0000
  O   O22       1.0  0.5384749791119248  0.4891130963806063  0.7384308823384345  1.0000
  O   O23       1.0  0.8578651790739968  0.6863304925936973  0.5589934636373073  1.0000
  O   O24       1.0  0.3149730849545449  0.5073501120496076  0.12022923957556486  1.0000
data_image143
_chemical_formula_structural       O24
_chemical_formula_sum              "O24"
_cell_length_a       6.65259782
_cell_length_b       6.76810209
_cell_length_c       7.45043691
_cell_angle_alpha    90.0
_cell_angle_beta     90.0
_cell_angle_gamma    90.0

_space_group_name_H-M_alt    "P 1"
_space_group_IT_number       1

loop_
  _space_group_symop_operation_xyz
  'x, y, z'

loop_
  _atom_site_type_symbol
  _atom_site_label
  _atom_site_symmetry_multiplicity
  _atom_site_fract_x
  _atom_site_fract_y
  _atom_site_fract_z
  _atom_site_occupancy
  O   O1        1.0  0.4603336602449417  0.9357278700917959  0.21702135540544987  1.0000
  O   O2        1.0  0.3609441749867983  0.44687280582729727  0.7949712935223943  1.0000
  O   O3        1.0  0.2276049864012748  0.9381690251175314  0.39393256430048496  1.0000
  O   O4        1.0  0.49630837052245624  0.5500768087804317  0.7210057668853551  1.0000
  O   O5        1.0  0.812852035232936  0.3918278476485284  0.7480130111798644  1.0000
  O   O6        1.0  0.09569662297144532  0.6064003875944763  0.017804446164518595  1.0000
  O   O7        1.0  0.09731386814837606  0.17144293512683362  0.8967501797596924  1.0000
  O   O8        1.0  0.966107305866899  0.15888723166426644  0.1386244409113715  1.0000
  O   O9        1.0  0.0069064609706401825  0.8447644470725209  0.5539460247382522  1.0000
  O   O10       1.0  0.46608384227147326  0.20627462858101353  0.8355381909859716  1.0000
  O   O11       1.0  0.9604467316530645  0.7145539193588775  0.9333888671826571  1.0000
  O   O12       1.0  0.04402520693838596  0.36407709028571844  0.4370926506817341  1.0000
  O   O13       1.0  0.35660102061228827  0.783872666535899  0.1929393238388002  1.0000
  O   O14       1.0  0.7528134365566075  0.5014069423195906  0.8771328406292014  1.0000
  O   O15       1.0  0.1642525975476019  0.9546722583472729  0.19348051212728024  1.0000
  O   O16       1.0  0.354778511216864  0.689026411913801  0.9326209202408791  1.0000
  O   O17       1.0  0.4432408945867792  0.8266147567192093  0.6857152552347543  1.0000
  O   O18       1.0  0.9703944562024844  0.10398874688416981  0.12096294667571783  1.0000
  O   O19       1.0  0.8475185518618673  0.28486772236647084  0.4183601033873856  1.0000
  O   O20       1.0  0.8629365068627521  0.6570734404667746  0.6333137401379645  1.0000
  O   O21       1.0  0.058558656164677814  0.3355752536590444  0.49461919761961326  1.0000
  O   O22       1.0  0.1971318698488176  0.7377400256227702  0.6862269071862102  1.0000
  O   O23       1.0  0.11015725834295154  0.9728853139113198  0.8097630653064698  1.0000
  O   O24       1.0  0.8869930783985183  0.8232025345205329  0.2667755581205711  1.0000
data_image144
_chemical_formula_structural       O24
_chemical_formula_sum              "O24"
_cell_length_a       6.65259782
_cell_length_b       6.76810209
_cell_length_c       7.45043691
_cell_angle_alpha    90.0
_cell_angle_beta     90.0
_cell_angle_gamma    90.0

_space_group_name_H-M_alt    "P 1"
_space_group_IT_number       1

loop_
  _space_group_symop_operation_xyz
  'x, y, z'

loop_
  _atom_site_type_symbol
  _atom_site_label
  _atom_site_symmetry_multiplicity
  _atom_site_fract_x
  _atom_site_fract_y
  _atom_site_fract_z
  _atom_site_occupancy
  O   O1        1.0  0.5564467720687389  0.6258443221449852  0.5164746046066284  1.0000
  O   O2        1.0  0.09415199446084443  0.33545967109967023  0.8943286088615423  1.0000
  O   O3        1.0  0.45934883563313633  0.9404526768485084  0.6845256277592853  1.0000
  O   O4        1.0  0.29418851144146174  0.7666582094971091  0.9241114784963429  1.0000
  O   O5        1.0  0.155199965389329  0.38594530955015216  0.5500580048537813  1.0000
  O   O6        1.0  0.5268340837210417  0.5882727027637884  0.1225310682784766  1.0000
  O   O7        1.0  0.4319812291073504  0.7579288063570857  0.9739640357438475  1.0000
  O   O8        1.0  0.20243795186979696  0.4501589724095538  0.722721895093855  1.0000
  O   O9        1.0  0.5426971632987261  0.22601111058611423  0.17732538003474474  1.0000
  O   O10       1.0  0.9859116763982456  0.7082650698721409  0.14291161678556819  1.0000
  O   O11       1.0  0.22568278654944152  0.3299828704330139  0.6946947474498302  1.0000
  O   O12       1.0  0.7140860203653574  0.9651902504265308  0.9613320715725422  1.0000
  O   O13       1.0  0.313171467394568  0.44676352746319026  0.07439989922568202  1.0000
  O   O14       1.0  0.3534839933854528  0.7166162959765643  0.7363318582065403  1.0000
  O   O15       1.0  0.9154615048319101  0.4390221459325403  0.030726718017831445  1.0000
  O   O16       1.0  0.3012808682397008  0.6207907864591107  0.5072916017379612  1.0000
  O   O17       1.0  0.6742877892684191  0.8256836361251771  0.9235375994412607  1.0000
  O   O18       1.0  0.004045895566378022  0.9633572738653129  0.5908250804059207  1.0000
  O   O19       1.0  0.7700188063026872  0.26470910606440157  0.5693699102848768  1.0000
  O   O20       1.0  0.013474717154167593  0.7646485730074346  0.4836619426496327  1.0000
  O   O21       1.0  0.525741541016032  0.9119619885459542  0.3109037346439436  1.0000
  O   O22       1.0  0.9208055827766657  0.18626365601085126  0.09352392144501209  1.0000
  O   O23       1.0  0.6592874181224033  0.42116564524803835  0.5559411223512143  1.0000
  O   O24       1.0  0.35997343994677067  0.3588485441869125  0.7585067272884771  1.0000
data_image145
_chemical_formula_structural       O24
_chemical_formula_sum              "O24"
_cell_length_a       6.65259782
_cell_length_b       6.76810209
_cell_length_c       7.45043691
_cell_angle_alpha    90.0
_cell_angle_beta     90.0
_cell_angle_gamma    90.0

_space_group_name_H-M_alt    "P 1"
_space_group_IT_number       1

loop_
  _space_group_symop_operation_xyz
  'x, y, z'

loop_
  _atom_site_type_symbol
  _atom_site_label
  _atom_site_symmetry_multiplicity
  _atom_site_fract_x
  _atom_site_fract_y
  _atom_site_fract_z
  _atom_site_occupancy
  O   O1        1.0  0.6415494624525309  0.2121825497597456  0.11239623464643955  1.0000
  O   O2        1.0  0.3764811703294981  0.4208455140469596  0.389589664657251  1.0000
  O   O3        1.0  0.28949999320320785  0.4463429726893082  0.12692600837908685  1.0000
  O   O4        1.0  0.07960941128840204  0.11525086325127631  0.3536243808193831  1.0000
  O   O5        1.0  0.1943522712099366  0.39565672307799105  0.07271567790303379  1.0000
  O   O6        1.0  0.25632296898402274  0.9981093611568213  0.13579267030581832  1.0000
  O   O7        1.0  0.8878752909868126  0.9466005450231023  0.3330042728339322  1.0000
  O   O8        1.0  0.17535617318935692  0.19741948193404824  0.5803524775710684  1.0000
  O   O9        1.0  0.6831871513277292  0.4215954467654228  0.2766349818557501  1.0000
  O   O10       1.0  0.09209064170136116  0.08558489321148954  0.02323127398994984  1.0000
  O   O11       1.0  0.8689904862549156  0.017164037300972268  0.41242404200602323  1.0000
  O   O12       1.0  0.19453699328005314  0.050858872942626476  0.9420879725366831  1.0000
  O   O13       1.0  0.8743851977051236  0.6336598561611027  0.7341241539688781  1.0000
  O   O14       1.0  0.7884512058808468  0.7205936215468682  0.2658377541229129  1.0000
  O   O15       1.0  0.8073239755467512  0.25548455491662025  0.1413983937818557  1.0000
  O   O16       1.0  0.3670682741794735  0.7471386447432451  0.07417086139321327  1.0000
  O   O17       1.0  0.32414808473549783  0.5006548769306391  0.6366409572583507  1.0000
  O   O18       1.0  0.8861959468922578  0.7474047226132825  0.6214413973502815  1.0000
  O   O19       1.0  0.4146740985161159  0.6367899285396561  0.2787042146665044  1.0000
  O   O20       1.0  0.45632414403371513  0.670365534897428  0.29471315525006503  1.0000
  O   O21       1.0  0.21625846913957503  0.08843289338983595  0.44935410731704906  1.0000
  O   O22       1.0  0.8510024126153439  0.0035730261588469148  0.9797485074959695  1.0000
  O   O23       1.0  0.722099085804075  0.05458366016682703  0.3255870452267118  1.0000
  O   O24       1.0  0.552217181539163  0.6337086057465058  0.43949937680736184  1.0000
data_image146
_chemical_formula_structural       O24
_chemical_formula_sum              "O24"
_cell_length_a       6.65259782
_cell_length_b       6.76810209
_cell_length_c       7.45043691
_cell_angle_alpha    90.0
_cell_angle_beta     90.0
_cell_angle_gamma    90.0

_space_group_name_H-M_alt    "P 1"
_space_group_IT_number       1

loop_
  _space_group_symop_operation_xyz
  'x, y, z'

loop_
  _atom_site_type_symbol
  _atom_site_label
  _atom_site_symmetry_multiplicity
  _atom_site_fract_x
  _atom_site_fract_y
  _atom_site_fract_z
  _atom_site_occupancy
  O   O1        1.0  0.25542800687253475  0.903964526951313  0.4591021407395601  1.0000
  O   O2        1.0  0.6822033582466247  0.411367634718772  0.03035798080964014  1.0000
  O   O3        1.0  0.5527476958232  0.7232828699052334  0.20817156182602048  1.0000
  O   O4        1.0  0.2418436044245027  0.008600579807534814  0.4340271663531894  1.0000
  O   O5        1.0  0.934978094897815  0.03321010948275216  0.020408946642419323  1.0000
  O   O6        1.0  0.25631137657910585  0.5104182343930006  0.32043676264584064  1.0000
  O   O7        1.0  0.5028223991685081  0.5718043622327968  0.9669220131472684  1.0000
  O   O8        1.0  0.7897932351625059  0.21974241686984897  0.48614242595795076  1.0000
  O   O9        1.0  0.6228390317410231  0.38684066745918244  0.3931704377755523  1.0000
  O   O10       1.0  0.39826489449478686  0.23843967521679588  0.42549115071597043  1.0000
  O   O11       1.0  0.07194359658751637  0.08808405384479556  0.7984212221344933  1.0000
  O   O12       1.0  0.3741357121616602  0.5829056054353714  0.3713972419500351  1.0000
  O   O13       1.0  0.055326212546788156  0.4034939365228638  0.10590334318112582  1.0000
  O   O14       1.0  0.845312770572491  0.17430099059129134  0.6519685837556608  1.0000
  O   O15       1.0  0.24434853257844225  0.9702915742527694  0.5314707804936916  1.0000
  O   O16       1.0  0.2617849442176521  0.9872974212630652  0.4186491994187236  1.0000
  O   O17       1.0  0.22434441780205816  0.3373567364178598  0.037934939939077594  1.0000
  O   O18       1.0  0.7324965086299926  0.5937589006498456  0.7366081881336868  1.0000
  O   O19       1.0  0.6077628342900425  0.7996607475797646  0.781497674586717  1.0000
  O   O20       1.0  0.893161827349104  0.013071508903522044  0.5143417890649289  1.0000
  O   O21       1.0  0.16371550103940535  0.24623623477236833  0.3169442774960771  1.0000
  O   O22       1.0  0.5718434441369027  0.20043367519974709  0.4724751082248986  1.0000
  O   O23       1.0  0.8115827532019466  0.6177458499842032  0.8226841476280242  1.0000
  O   O24       1.0  0.9050091851968318  0.9776928268547636  0.6954725035466254  1.0000
data_image147
_chemical_formula_structural       O24
_chemical_formula_sum              "O24"
_cell_length_a       6.65259782
_cell_length_b       6.76810209
_cell_length_c       7.45043691
_cell_angle_alpha    90.0
_cell_angle_beta     90.0
_cell_angle_gamma    90.0

_space_group_name_H-M_alt    "P 1"
_space_group_IT_number       1

loop_
  _space_group_symop_operation_xyz
  'x, y, z'

loop_
  _atom_site_type_symbol
  _atom_site_label
  _atom_site_symmetry_multiplicity
  _atom_site_fract_x
  _atom_site_fract_y
  _atom_site_fract_z
  _atom_site_occupancy
  O   O1        1.0  0.09816382080316544  0.8519387766718864  0.2560803946107626  1.0000
  O   O2        1.0  0.13317978414852405  0.8203536042710766  0.1378882558492478  1.0000
  O   O3        1.0  0.1406139344908297  0.5755833014845848  0.6969719366170466  1.0000
  O   O4        1.0  0.2290493087057257  0.2996894730022177  0.386472049918666  1.0000
  O   O5        1.0  0.06713683703856077  0.23730710746895056  0.9489525437966222  1.0000
  O   O6        1.0  0.2710251249372959  0.2699466608464718  0.07372961333021522  1.0000
  O   O7        1.0  0.9322108533415303  0.8253764538094401  0.8321048152865842  1.0000
  O   O8        1.0  0.6323442165448796  0.7692686876398511  0.7557040262145165  1.0000
  O   O9        1.0  0.8074623923748732  0.0698186798254028  0.7999811302870512  1.0000
  O   O10       1.0  0.17132214637240395  0.14007534974371083  0.4275538750080159  1.0000
  O   O11       1.0  0.047834109398536384  0.5334144181688316  0.5920178182423115  1.0000
  O   O12       1.0  0.5397148616611958  0.8718071356415749  0.5833794288337231  1.0000
  O   O13       1.0  0.7922857778030448  0.06603869597893208  0.03439874935429543  1.0000
  O   O14       1.0  0.054226535896304995  0.1814742243150249  0.8009432621183805  1.0000
  O   O15       1.0  0.6168692251085304  0.1895897623617202  0.4333437834866345  1.0000
  O   O16       1.0  0.6903486186638474  0.8634219014202245  0.49628094770014286  1.0000
  O   O17       1.0  0.056377371307462454  0.9147947418969125  0.4454580793526475  1.0000
  O   O18       1.0  0.2594694240251556  0.02693889942020178  0.06609360734000802  1.0000
  O   O19       1.0  0.7390824230242288  0.7738535008975305  0.4868481890880503  1.0000
  O   O20       1.0  0.9171547795413062  0.6414275546558201  0.18209401878993958  1.0000
  O   O21       1.0  0.4406445547210751  0.012049018288962543  0.568491781479679  1.0000
  O   O22       1.0  0.6854337127879262  0.01715539873111993  0.4332451308146119  1.0000
  O   O23       1.0  0.2603170210495591  0.15931824781000614  0.3050301364273764  1.0000
  O   O24       1.0  0.4177329974481836  0.8893598184513394  0.2569354607257992  1.0000
data_image148
_chemical_formula_structural       O24
_chemical_formula_sum              "O24"
_cell_length_a       6.65259782
_cell_length_b       6.76810209
_cell_length_c       7.45043691
_cell_angle_alpha    90.0
_cell_angle_beta     90.0
_cell_angle_gamma    90.0

_space_group_name_H-M_alt    "P 1"
_space_group_IT_number       1

loop_
  _space_group_symop_operation_xyz
  'x, y, z'

loop_
  _atom_site_type_symbol
  _atom_site_label
  _atom_site_symmetry_multiplicity
  _atom_site_fract_x
  _atom_site_fract_y
  _atom_site_fract_z
  _atom_site_occupancy
  O   O1        1.0  0.33856585435569286  0.6751046180725098  0.8034793306142092  1.0000
  O   O2        1.0  0.03936505845194915  0.07608861959306523  0.8173826728161657  1.0000
  O   O3        1.0  0.6557935627643019  0.9723466001451015  0.8063344447873533  1.0000
  O   O4        1.0  0.2744468768360093  0.33172299375291914  0.9355478123325156  1.0000
  O   O5        1.0  0.2866832724685082  0.7090288882463938  0.03407934233837295  1.0000
  O   O6        1.0  0.8300037188455462  0.5457756966352463  0.9673216841183603  1.0000
  O   O7        1.0  0.3473063345591072  0.15561915485886857  0.9435401710215956  1.0000
  O   O8        1.0  0.6129894875048194  0.40723185025854036  0.878313581319162  1.0000
  O   O9        1.0  0.11855233740061522  0.41977543546818197  0.7181750116869807  1.0000
  O   O10       1.0  0.2616721637605224  0.7360896732134279  0.9652266366319964  1.0000
  O   O11       1.0  0.2944624701049179  0.28507157864805777  0.09165738674346358  1.0000
  O   O12       1.0  0.8453313317149878  0.3608507411554456  0.85750019736588  1.0000
  O   O13       1.0  0.6689280352147762  0.6667801863513887  0.8712433465989307  1.0000
  O   O14       1.0  0.6727248360402882  0.3889653878286481  0.6874139331048355  1.0000
  O   O15       1.0  0.6747852226835676  0.5749133992940187  0.9446621767710894  1.0000
  O   O16       1.0  0.6473322827368975  0.2978494024137035  0.5137915434315801  1.0000
  O   O17       1.0  0.37135277630295604  0.4270590477390215  0.7848490438304907  1.0000
  O   O18       1.0  0.7217038817470893  0.9721302967518568  0.9469583118334413  1.0000
  O   O19       1.0  0.5732697334315162  0.9297185658942908  0.9860101456288248  1.0000
  O   O20       1.0  0.6846507554873824  0.4992866908723954  0.07522392040118575  1.0000
  O   O21       1.0  0.17214395705377683  0.35767361769103445  0.6572874955600128  1.0000
  O   O22       1.0  0.24265159550122917  0.4022708643460646  0.3636737070046365  1.0000
  O   O23       1.0  0.8386392715619877  0.10861051572283031  0.37975847837515175  1.0000
  O   O24       1.0  0.8266450678929687  0.7000380696554203  0.9705685439985245  1.0000
data_image149
_chemical_formula_structural       O24
_chemical_formula_sum              "O24"
_cell_length_a       6.65259782
_cell_length_b       6.76810209
_cell_length_c       7.45043691
_cell_angle_alpha    90.0
_cell_angle_beta     90.0
_cell_angle_gamma    90.0

_space_group_name_H-M_alt    "P 1"
_space_group_IT_number       1

loop_
  _space_group_symop_operation_xyz
  'x, y, z'

loop_
  _atom_site_type_symbol
  _atom_site_label
  _atom_site_symmetry_multiplicity
  _atom_site_fract_x
  _atom_site_fract_y
  _atom_site_fract_z
  _atom_site_occupancy
  O   O1        1.0  0.09066339768469334  0.7608354929834604  0.7157998159527779  1.0000
  O   O2        1.0  0.8212291709860438  0.1544272257015109  0.18713754364580382  1.0000
  O   O3        1.0  0.9084708280861378  0.521698072552681  0.13815974444150925  1.0000
  O   O4        1.0  0.024002611011383124  0.624351313104853  0.658699883006193  1.0000
  O   O5        1.0  0.13074061839142814  0.5775893850077409  0.10148415788717102  1.0000
  O   O6        1.0  0.7187995165586472  0.6869644746184349  0.8668206743896008  1.0000
  O   O7        1.0  0.983730932653998  0.13203048973809928  0.7555407655891031  1.0000
  O   O8        1.0  0.6618153616145719  0.015423445962369442  0.3998350387773826  1.0000
  O   O9        1.0  0.17801540158689022  0.6639195020543411  0.5980353532359004  1.0000
  O   O10       1.0  0.22786300969892181  0.02904799085808918  0.5690148391440744  1.0000
  O   O11       1.0  0.3754596144426614  0.8487374468822964  0.03582239872775972  1.0000
  O   O12       1.0  0.11812935397028923  0.5063279066234827  0.13822327926754951  1.0000
  O   O13       1.0  0.024993289727717638  0.15883843530900776  0.6429254398681223  1.0000
  O   O14       1.0  0.6604573306394741  0.6213270470616408  0.740686276985798  1.0000
  O   O15       1.0  0.736571418994572  0.7691642472054809  0.788953606504947  1.0000
  O   O16       1.0  0.9643182714935392  0.39061942230910063  0.9796824480872601  1.0000
  O   O17       1.0  0.5932137521449476  0.7840831456705928  0.3400030799675733  1.0000
  O   O18       1.0  0.4611913183471188  0.9429451674222946  0.5005670487880707  1.0000
  O   O19       1.0  0.6034700334712397  0.4629459623247385  0.681704145623371  1.0000
  O   O20       1.0  0.5958464196883142  0.8270575258356985  0.5515365947503597  1.0000
  O   O21       1.0  0.7348725899501005  0.9107697841827758  0.6406397311366163  1.0000
  O   O22       1.0  0.38833080790936947  0.6811581703368574  0.33112542564049363  1.0000
  O   O23       1.0  0.464216347434558  0.3150651168434706  0.9893771121278405  1.0000
  O   O24       1.0  0.5335985729470849  0.6146751090418547  0.6482245086226612  1.0000
data_image150
_chemical_formula_structural       O24
_chemical_formula_sum              "O24"
_cell_length_a       6.65259782
_cell_length_b       6.76810209
_cell_length_c       7.45043691
_cell_angle_alpha    90.0
_cell_angle_beta     90.0
_cell_angle_gamma    90.0

_space_group_name_H-M_alt    "P 1"
_space_group_IT_number       1

loop_
  _space_group_symop_operation_xyz
  'x, y, z'

loop_
  _atom_site_type_symbol
  _atom_site_label
  _atom_site_symmetry_multiplicity
  _atom_site_fract_x
  _atom_site_fract_y
  _atom_site_fract_z
  _atom_site_occupancy
  O   O1        1.0  0.9592395350337029  0.8999768011271954  0.4049504715949297  1.0000
  O   O2        1.0  0.37893903207441326  0.6749041603179649  0.5758950087765697  1.0000
  O   O3        1.0  0.4167198804207146  0.36810285970568657  0.3568648495711386  1.0000
  O   O4        1.0  0.22735289634147193  0.12123682163655758  0.2085860066508758  1.0000
  O   O5        1.0  0.31927782733691856  0.4773891400109278  0.7923669053270714  1.0000
  O   O6        1.0  0.8067101975902915  0.32033164612948895  0.3428377481177449  1.0000
  O   O7        1.0  0.2700144630471186  0.925446804787498  0.3121076503302902  1.0000
  O   O8        1.0  0.6259231663134415  0.4455493342829868  0.41900412228278583  1.0000
  O   O9        1.0  0.7787128537893295  0.9567839141236618  0.11768008302897215  1.0000
  O   O10       1.0  0.5698513115930837  0.6406480923760682  0.24673381917818915  1.0000
  O   O11       1.0  0.5298289478523657  0.3405097532959189  0.7774158683605492  1.0000
  O   O12       1.0  0.7727556675672531  0.25370149314403534  0.10712267644703388  1.0000
  O   O13       1.0  0.44456929867737927  0.9683567247120664  0.8311867465963587  1.0000
  O   O14       1.0  0.2505876575014554  0.3427094746148214  0.3344303060439415  1.0000
  O   O15       1.0  0.11787848873063922  0.684363724431023  0.5943453039508313  1.0000
  O   O16       1.0  0.6798900065477937  0.6483493988635018  0.9644238220062107  1.0000
  O   O17       1.0  0.035375494859181345  0.2070471259066835  0.6887622682568235  1.0000
  O   O18       1.0  0.051088188658468425  0.3302580378949642  0.6451070578768849  1.0000
  O   O19       1.0  0.2729345311963698  0.9539847983978689  0.452703230723273  1.0000
  O   O20       1.0  0.6342155481688678  0.626269167085411  0.249194402131252  1.0000
  O   O21       1.0  0.4393280772055732  0.8590415220241994  0.2455988940782845  1.0000
  O   O22       1.0  0.5661539472639561  0.07929221645463258  0.08329690806567669  1.0000
  O   O23       1.0  0.6623772993916646  0.8500110863424197  0.6212720840703696  1.0000
  O   O24       1.0  0.19027560867834836  0.02573766707791947  0.6281129028648138  1.0000
data_image151
_chemical_formula_structural       O24
_chemical_formula_sum              "O24"
_cell_length_a       6.65259782
_cell_length_b       6.76810209
_cell_length_c       7.45043691
_cell_angle_alpha    90.0
_cell_angle_beta     90.0
_cell_angle_gamma    90.0

_space_group_name_H-M_alt    "P 1"
_space_group_IT_number       1

loop_
  _space_group_symop_operation_xyz
  'x, y, z'

loop_
  _atom_site_type_symbol
  _atom_site_label
  _atom_site_symmetry_multiplicity
  _atom_site_fract_x
  _atom_site_fract_y
  _atom_site_fract_z
  _atom_site_occupancy
  O   O1        1.0  0.9841372352093458  0.6906598173081875  0.685865318402648  1.0000
  O   O2        1.0  0.7656337090229499  0.6317005564342253  0.8188371417782037  1.0000
  O   O3        1.0  0.8060629111714661  0.606026403605938  0.7436877638101578  1.0000
  O   O4        1.0  0.27077468056813814  0.6395043623633683  0.7249203847459285  1.0000
  O   O5        1.0  0.7032339419383788  0.9980557842063718  0.7612756492744666  1.0000
  O   O6        1.0  0.21295199263840914  0.6505033615976572  0.702638634480536  1.0000
  O   O7        1.0  0.641977362557725  0.3337868255912326  0.9580132201663218  1.0000
  O   O8        1.0  0.8146800803951919  0.1389875490567647  0.7643169865405071  1.0000
  O   O9        1.0  0.34564212895929813  0.7407481928821653  0.5326456828042865  1.0000
  O   O10       1.0  0.35087978348019533  0.5654490259476006  0.4139141736814054  1.0000
  O   O11       1.0  0.6140527941752225  0.6934498538903426  0.5468438506359234  1.0000
  O   O12       1.0  0.7187869623303413  0.5067456299439073  0.2217257209122181  1.0000
  O   O13       1.0  0.38577235271804966  0.5085299576167017  0.05973547021858394  1.0000
  O   O14       1.0  0.043537060904782265  0.9459216786781326  0.9395776544115506  1.0000
  O   O15       1.0  0.6991959389997646  0.17921525426208973  0.17614963022060692  1.0000
  O   O16       1.0  0.3271044138818979  0.3853842534008436  0.8860597384627908  1.0000
  O   O17       1.0  0.8314745156094432  0.9050504051847383  0.37165858818843844  1.0000
  O   O18       1.0  0.3793748413445428  0.5059528267011046  0.8055716408416629  1.0000
  O   O19       1.0  0.8568294275028165  0.6977938099298626  0.1440534699941054  1.0000
  O   O20       1.0  0.829660531366244  0.5271211113140453  0.3233840233879164  1.0000
  O   O21       1.0  0.45252835177234374  0.46676343979197554  0.9679766688495874  1.0000
  O   O22       1.0  0.3997726459056139  0.501806634129025  0.4014225145801902  1.0000
  O   O23       1.0  0.8502304115099832  0.575574039019557  0.6030295983073302  1.0000
  O   O24       1.0  0.7157057716976851  0.6052705354522914  0.44669561192858964  1.0000
data_image152
_chemical_formula_structural       O24
_chemical_formula_sum              "O24"
_cell_length_a       6.65259782
_cell_length_b       6.76810209
_cell_length_c       7.45043691
_cell_angle_alpha    90.0
_cell_angle_beta     90.0
_cell_angle_gamma    90.0

_space_group_name_H-M_alt    "P 1"
_space_group_IT_number       1

loop_
  _space_group_symop_operation_xyz
  'x, y, z'

loop_
  _atom_site_type_symbol
  _atom_site_label
  _atom_site_symmetry_multiplicity
  _atom_site_fract_x
  _atom_site_fract_y
  _atom_site_fract_z
  _atom_site_occupancy
  O   O1        1.0  0.32343694381415844  0.6054000109434128  0.306857667863369  1.0000
  O   O2        1.0  0.966307425089326  0.6604829819989391  0.9977922676625894  1.0000
  O   O3        1.0  0.5798088763840497  0.17840126156806946  0.5758469742722809  1.0000
  O   O4        1.0  0.24768553492322098  0.3688654414145276  0.672757369113242  1.0000
  O   O5        1.0  0.3203616315877298  0.46712649473920465  0.7741369822324486  1.0000
  O   O6        1.0  0.6443884335458279  0.37079544737935066  0.7798986199777573  1.0000
  O   O7        1.0  0.8748543302326652  0.33698952809209004  0.7372230432811193  1.0000
  O   O8        1.0  0.4188327388255857  0.36187798873288557  0.4594778528989991  1.0000
  O   O9        1.0  0.0695995595306158  0.7147878701798618  0.793434607796371  1.0000
  O   O10       1.0  0.9131256300897803  0.5045436769432854  0.3785534368653316  1.0000
  O   O11       1.0  0.41374483349500224  0.27444769695284776  0.8599755666218698  1.0000
  O   O12       1.0  0.8487564325332642  0.9401092920452356  0.4353523701429367  1.0000
  O   O13       1.0  0.49180963513208553  0.1376336261164397  0.36437978537287563  1.0000
  O   O14       1.0  0.47564768797019497  0.42018972779624164  0.2680335808545351  1.0000
  O   O15       1.0  0.15578933409415185  0.37760314415208995  0.6544354187790304  1.0000
  O   O16       1.0  0.2639368032105267  0.5918531288043596  0.06794637069106102  1.0000
  O   O17       1.0  0.21473019174300134  0.31257825350621715  0.3677053326209716  1.0000
  O   O18       1.0  0.41789058467838913  0.6251540929079056  0.7980617797002196  1.0000
  O   O19       1.0  0.7707349376869388  0.7910623624920845  0.5808580575976521  1.0000
  O   O20       1.0  0.4352657748386264  0.26098564520361833  0.7808112354250625  1.0000
  O   O21       1.0  0.9959503616992151  0.6443727108417079  0.43508423707680777  1.0000
  O   O22       1.0  0.36516456049866974  0.7308212151983753  0.0701121836900711  1.0000
  O   O23       1.0  0.0867408070480451  0.3398121864483983  0.349587862205226  1.0000
  O   O24       1.0  0.7054367455421016  0.9841071153932717  0.49167697853408754  1.0000
data_image153
_chemical_formula_structural       O24
_chemical_formula_sum              "O24"
_cell_length_a       6.65259782
_cell_length_b       6.76810209
_cell_length_c       7.45043691
_cell_angle_alpha    90.0
_cell_angle_beta     90.0
_cell_angle_gamma    90.0

_space_group_name_H-M_alt    "P 1"
_space_group_IT_number       1

loop_
  _space_group_symop_operation_xyz
  'x, y, z'

loop_
  _atom_site_type_symbol
  _atom_site_label
  _atom_site_symmetry_multiplicity
  _atom_site_fract_x
  _atom_site_fract_y
  _atom_site_fract_z
  _atom_site_occupancy
  O   O1        1.0  0.6746793128550053  0.11748751811683178  0.9439048897475004  1.0000
  O   O2        1.0  0.9275553035113262  0.8860366773442365  0.23804861860116944  1.0000
  O   O3        1.0  0.2744907948654145  0.8610711023211479  0.09328027255833149  1.0000
  O   O4        1.0  0.18272503321350086  0.63889632653445  0.5966104314720724  1.0000
  O   O5        1.0  0.5840324315067846  0.7197405361221172  0.6635601425368804  1.0000
  O   O6        1.0  0.5645773941650987  0.47680529579520226  0.09253974421881139  1.0000
  O   O7        1.0  0.2846733995138493  0.2125352676375769  0.3666218637372367  1.0000
  O   O8        1.0  0.46382162102963775  0.02778584638144821  0.6446608484920944  1.0000
  O   O9        1.0  0.16623872332274914  0.31663439190015197  0.8833890175446868  1.0000
  O   O10       1.0  0.5112528861791361  0.9082028823613655  0.9339607257716125  1.0000
  O   O11       1.0  0.29787001735530794  0.80354227173666  0.16293802857398987  1.0000
  O   O12       1.0  0.6558655761182308  0.2674718862399459  0.007633311673998833  1.0000
  O   O13       1.0  0.16547185886884108  0.8174589063273743  0.7292302468558773  1.0000
  O   O14       1.0  0.1507043275050819  0.23458858038065955  0.08375029609305784  1.0000
  O   O15       1.0  0.18205900100292638  0.34198163938708603  0.4740548108238727  1.0000
  O   O16       1.0  0.759401339571923  0.5011443874100223  0.7172333309426904  1.0000
  O   O17       1.0  0.5039154748665169  0.7897797646583058  0.6976367047136591  1.0000
  O   O18       1.0  0.6329245689557865  0.3028415022417903  0.8692485010251403  1.0000
  O   O19       1.0  0.9475276205776026  0.6952573949820362  0.7585984405013733  1.0000
  O   O20       1.0  0.27239393268246204  0.6648392657225486  0.4563248410122469  1.0000
  O   O21       1.0  0.9915176248032367  0.7162116496474482  0.7417419149423949  1.0000
  O   O22       1.0  0.12567175854928792  0.742279322934337  0.11512833880260587  1.0000
  O   O23       1.0  0.6366182485362515  0.5630888659143238  0.9372122750501148  1.0000
  O   O24       1.0  0.04401183302979916  0.3943198070919607  0.7926920059835538  1.0000
data_image154
_chemical_formula_structural       O24
_chemical_formula_sum              "O24"
_cell_length_a       6.65259782
_cell_length_b       6.76810209
_cell_length_c       7.45043691
_cell_angle_alpha    90.0
_cell_angle_beta     90.0
_cell_angle_gamma    90.0

_space_group_name_H-M_alt    "P 1"
_space_group_IT_number       1

loop_
  _space_group_symop_operation_xyz
  'x, y, z'

loop_
  _atom_site_type_symbol
  _atom_site_label
  _atom_site_symmetry_multiplicity
  _atom_site_fract_x
  _atom_site_fract_y
  _atom_site_fract_z
  _atom_site_occupancy
  O   O1        1.0  0.5306747574359179  0.21684259362518787  0.4760134592652321  1.0000
  O   O2        1.0  0.6821653860024526  0.8060751834418625  0.1802184965054039  1.0000
  O   O3        1.0  0.40480770403519273  0.6174809131771326  0.019813077989965677  1.0000
  O   O4        1.0  0.2680479666450992  0.49450515129137784  0.6429005669269827  1.0000
  O   O5        1.0  0.7481500387948472  0.25745443896448705  0.8911424966645427  1.0000
  O   O6        1.0  0.7449009595438838  0.44289292581379414  0.5322691935580224  1.0000
  O   O7        1.0  0.9882487682416468  0.13978187867905945  0.24297872179886326  1.0000
  O   O8        1.0  0.9561305495153647  0.2118279929854907  0.40637324663430263  1.0000
  O   O9        1.0  0.2932209577411413  0.6610472494503483  0.5533318119123578  1.0000
  O   O10       1.0  0.7974222651100717  0.8702403290953953  0.8470880261011189  1.0000
  O   O11       1.0  0.8485406148829497  0.5756699436460622  0.44949787575751543  1.0000
  O   O12       1.0  0.4920079465955496  0.6582732815295458  0.7941943593323231  1.0000
  O   O13       1.0  0.6062532353389543  0.697502167779021  0.9370994885684922  1.0000
  O   O14       1.0  0.684311977121979  0.939738676417619  0.3637136262259446  1.0000
  O   O15       1.0  0.6220999516663142  0.02540789218619466  0.9619198956061155  1.0000
  O   O16       1.0  0.8162625941913575  0.499003232922405  0.341827497119084  1.0000
  O   O17       1.0  0.5525802958291024  0.5406100840773433  0.5868119252954784  1.0000
  O   O18       1.0  0.2963981725042686  0.3055116832256317  0.6053776014596224  1.0000
  O   O19       1.0  0.4157114531553816  0.6296167023829184  0.7758778144489042  1.0000
  O   O20       1.0  0.019679028657265007  0.4838571415748447  0.12815587071236223  1.0000
  O   O21       1.0  0.974386361791403  0.9039223171712365  0.4818216775311157  1.0000
  O   O22       1.0  0.32628193707205355  0.8177296615904197  0.9763719425536692  1.0000
  O   O23       1.0  0.09704869787674397  0.843549674606038  0.2557166125625372  1.0000
  O   O24       1.0  0.8346686959266663  0.3614602426823694  0.5494839214952663  1.0000
data_image155
_chemical_formula_structural       O24
_chemical_formula_sum              "O24"
_cell_length_a       6.65259782
_cell_length_b       6.76810209
_cell_length_c       7.45043691
_cell_angle_alpha    90.0
_cell_angle_beta     90.0
_cell_angle_gamma    90.0

_space_group_name_H-M_alt    "P 1"
_space_group_IT_number       1

loop_
  _space_group_symop_operation_xyz
  'x, y, z'

loop_
  _atom_site_type_symbol
  _atom_site_label
  _atom_site_symmetry_multiplicity
  _atom_site_fract_x
  _atom_site_fract_y
  _atom_site_fract_z
  _atom_site_occupancy
  O   O1        1.0  0.0026453249156475067  0.2789203841239214  0.4916180334985256  1.0000
  O   O2        1.0  0.1313763777143322  0.3095982429222204  0.2448286049766466  1.0000
  O   O3        1.0  0.5893689629156142  0.04477989859879017  0.3463611891493201  1.0000
  O   O4        1.0  0.8726812523818808  0.4515524375019595  0.6711357084714109  1.0000
  O   O5        1.0  0.17209781355632003  0.22504304246103857  0.8596845663560089  1.0000
  O   O6        1.0  0.8095120722427964  0.8267527632415295  0.4755399620626122  1.0000
  O   O7        1.0  0.49098870398574945  0.19650239538168535  0.18213107925839722  1.0000
  O   O8        1.0  0.2653425293392502  0.011734854837413877  0.9057602722982665  1.0000
  O   O9        1.0  0.36289932020008564  0.9798489438835531  0.8295488683506846  1.0000
  O   O10       1.0  0.25755401101196185  0.6452909056388307  0.570497109903954  1.0000
  O   O11       1.0  0.13887055189115927  0.9808657496760134  0.9952644617296755  1.0000
  O   O12       1.0  0.8208296373486519  0.7863082699477673  0.46753522753715515  1.0000
  O   O13       1.0  0.4131176127702929  0.7325261364458129  0.0889808238716796  1.0000
  O   O14       1.0  0.24469425377901644  0.6736062024137937  0.2326285545132123  1.0000
  O   O15       1.0  0.6977209526812658  0.8539414657279849  0.9670954931061715  1.0000
  O   O16       1.0  0.22380729764699936  0.4619652369292453  0.8549056742340326  1.0000
  O   O17       1.0  0.9351683952845633  0.9714955318486318  0.853950055421592  1.0000
  O   O18       1.0  0.7986183627508581  0.8377249706536531  0.7142231976613402  1.0000
  O   O19       1.0  0.6694235563627444  0.371515826205723  0.5237261258298531  1.0000
  O   O20       1.0  0.1985141101758927  0.48162767238682136  0.8636458636028692  1.0000
  O   O21       1.0  0.27073663771443535  0.09978924129973166  0.0725256756413728  1.0000
  O   O22       1.0  0.5942611768841743  0.8931728410534561  0.13959391182288527  1.0000
  O   O23       1.0  0.8425847667967901  0.8841922081483062  0.7156457561068237  1.0000
  O   O24       1.0  0.19718714291229844  0.0012466887128539383  0.9331726018572226  1.0000
data_image156
_chemical_formula_structural       O24
_chemical_formula_sum              "O24"
_cell_length_a       6.65259782
_cell_length_b       6.76810209
_cell_length_c       7.45043691
_cell_angle_alpha    90.0
_cell_angle_beta     90.0
_cell_angle_gamma    90.0

_space_group_name_H-M_alt    "P 1"
_space_group_IT_number       1

loop_
  _space_group_symop_operation_xyz
  'x, y, z'

loop_
  _atom_site_type_symbol
  _atom_site_label
  _atom_site_symmetry_multiplicity
  _atom_site_fract_x
  _atom_site_fract_y
  _atom_site_fract_z
  _atom_site_occupancy
  O   O1        1.0  0.860110754147172  0.07681290246546268  0.46849594824016094  1.0000
  O   O2        1.0  0.187318838412466  0.3576091661816463  0.008385232838918455  1.0000
  O   O3        1.0  0.4343667777720839  0.6355648785829544  0.11196583975106478  1.0000
  O   O4        1.0  0.5330486511520576  0.3931292101042345  0.7028772341036529  1.0000
  O   O5        1.0  0.0496350108878687  0.7126461969382945  0.3611660207097884  1.0000
  O   O6        1.0  0.5482439082115889  0.775386031717062  0.2797939183656126  1.0000
  O   O7        1.0  0.7276359765382949  0.04766725463559851  0.37506507989019156  1.0000
  O   O8        1.0  0.012420451937941834  0.5424833575380035  0.825550822653895  1.0000
  O   O9        1.0  0.6688016876578331  0.12063630763441324  0.9141792459413409  1.0000
  O   O10       1.0  0.26123860958614387  0.24553630431182683  0.6742360649514012  1.0000
  O   O11       1.0  0.5232988229836337  0.7292720397817902  0.04323285957798362  1.0000
  O   O12       1.0  0.5769873354583979  0.7153622694313526  0.4355823937803507  1.0000
  O   O13       1.0  0.9777190795575734  0.680011238437146  0.7284212987869978  1.0000
  O   O14       1.0  0.5223890115157701  0.7807516933535226  0.4024441100191325  1.0000
  O   O15       1.0  0.5959626149269752  0.9625709329266101  0.7049523773603141  1.0000
  O   O16       1.0  0.5069837057963014  0.8402702794410288  0.11467213626019657  1.0000
  O   O17       1.0  0.4637184665771201  0.9771331986994483  0.8427929381468857  1.0000
  O   O18       1.0  0.4753367447992787  0.7906321845948696  0.29586599580943584  1.0000
  O   O19       1.0  0.20843202163814567  0.8257113815052435  0.19204833003459498  1.0000
  O   O20       1.0  0.18825299863237888  0.6373385257611517  0.9015465351985767  1.0000
  O   O21       1.0  0.5047315588162746  0.3658190699206898  0.7649561467114836  1.0000
  O   O22       1.0  0.5883508403785527  0.8754439332988113  0.4596081180498004  1.0000
  O   O23       1.0  0.9744023432722315  0.3338549062027596  0.12055982981109992  1.0000
  O   O24       1.0  0.6106150564737618  0.5783590084174648  0.27160024002660066  1.0000
data_image157
_chemical_formula_structural       O24
_chemical_formula_sum              "O24"
_cell_length_a       6.65259782
_cell_length_b       6.76810209
_cell_length_c       7.45043691
_cell_angle_alpha    90.0
_cell_angle_beta     90.0
_cell_angle_gamma    90.0

_space_group_name_H-M_alt    "P 1"
_space_group_IT_number       1

loop_
  _space_group_symop_operation_xyz
  'x, y, z'

loop_
  _atom_site_type_symbol
  _atom_site_label
  _atom_site_symmetry_multiplicity
  _atom_site_fract_x
  _atom_site_fract_y
  _atom_site_fract_z
  _atom_site_occupancy
  O   O1        1.0  0.4778190925717354  0.26864452101290226  0.06796932965517044  1.0000
  O   O2        1.0  0.8350227838891442  0.3870218240772374  0.9293447733070934  1.0000
  O   O3        1.0  0.3926951796747744  0.5206411927938461  0.04732351936399937  1.0000
  O   O4        1.0  0.7288639459002297  0.6111575197428465  0.5976232458237973  1.0000
  O   O5        1.0  0.2889857991540339  0.9805763365220628  0.8675568500766531  1.0000
  O   O6        1.0  0.23941137921065092  0.14915332198143005  0.18891139421612024  1.0000
  O   O7        1.0  0.6717454234621982  0.21651031641522422  0.19403658428927884  1.0000
  O   O8        1.0  0.6348246522247791  0.05067467427579686  0.841374508512672  1.0000
  O   O9        1.0  0.8190364427864552  0.5214492855593562  0.7921797893941402  1.0000
  O   O10       1.0  0.18765766252181493  0.5117716018576175  0.22628630211693235  1.0000
  O   O11       1.0  0.36798534740228206  0.8223204047390027  0.04218334145843983  1.0000
  O   O12       1.0  0.44980265758931637  0.5180207528173923  0.5012205448001623  1.0000
  O   O13       1.0  0.31796441579353996  0.7739860162837431  0.010446820640936494  1.0000
  O   O14       1.0  0.29228547791717574  0.8823630059487186  0.6744604251580313  1.0000
  O   O15       1.0  0.8103643865906633  0.02250742446631193  0.25229120650328696  1.0000
  O   O16       1.0  0.02432893170043826  0.6778862831415609  0.15334827010519803  1.0000
  O   O17       1.0  0.9702573278918862  0.011860779079142958  0.8373038645077031  1.0000
  O   O18       1.0  0.7309683619532734  0.5466552162542939  0.8121016891673207  1.0000
  O   O19       1.0  0.5001384374045301  0.5082036413368769  0.16569704702124  1.0000
  O   O20       1.0  0.08242261281702667  0.48328155715717  0.4670006543165073  1.0000
  O   O21       1.0  0.8377898551843828  0.697074707612046  0.937871710921172  1.0000
  O   O22       1.0  0.703441827557981  0.07774816500023007  0.7632995704188943  1.0000
  O   O23       1.0  0.31555483129341155  0.8859271301771514  0.4698654811945744  1.0000
  O   O24       1.0  0.320634703617543  0.8745669731579255  0.16030165867414325  1.0000
data_image158
_chemical_formula_structural       O24
_chemical_formula_sum              "O24"
_cell_length_a       6.65259782
_cell_length_b       6.76810209
_cell_length_c       7.45043691
_cell_angle_alpha    90.0
_cell_angle_beta     90.0
_cell_angle_gamma    90.0

_space_group_name_H-M_alt    "P 1"
_space_group_IT_number       1

loop_
  _space_group_symop_operation_xyz
  'x, y, z'

loop_
  _atom_site_type_symbol
  _atom_site_label
  _atom_site_symmetry_multiplicity
  _atom_site_fract_x
  _atom_site_fract_y
  _atom_site_fract_z
  _atom_site_occupancy
  O   O1        1.0  0.7428894843906164  0.6035249307751656  0.14976669289171696  1.0000
  O   O2        1.0  0.3934601834334899  0.4832032169215381  0.5106228496006224  1.0000
  O   O3        1.0  0.34709376259706914  0.6899019181728363  0.24450856307521462  1.0000
  O   O4        1.0  0.006804534612456337  0.7004685609135777  0.8421114068514726  1.0000
  O   O5        1.0  0.2823534167546313  0.6402588614873821  0.8903167030366603  1.0000
  O   O6        1.0  0.7410946758463979  0.3430194519460201  0.2405993479769677  1.0000
  O   O7        1.0  0.2423469663681317  0.5688899528468028  0.6525164991617203  1.0000
  O   O8        1.0  0.5112046969588846  0.01931739889550954  0.8711325922631659  1.0000
  O   O9        1.0  0.4169620983302593  0.5884163666050881  0.9613795522600412  1.0000
  O   O10       1.0  0.31534061577985995  0.5902946361456998  0.4541167061252054  1.0000
  O   O11       1.0  0.8812709228950553  0.857402863126481  0.9894326440989971  1.0000
  O   O12       1.0  0.6677121762186289  0.37953516002744436  0.1400065142661333  1.0000
  O   O13       1.0  0.46198003223980777  0.9478817001217976  0.16811940947081894  1.0000
  O   O14       1.0  0.4379325558547862  0.872189013811294  0.8118279373156838  1.0000
  O   O15       1.0  0.3626426223781891  0.2889876766130328  0.5001658494584262  1.0000
  O   O16       1.0  0.8198624618817121  0.17336669680662453  0.4707392330747098  1.0000
  O   O17       1.0  0.21151300985366106  0.648383490217384  0.7966269816388376  1.0000
  O   O18       1.0  0.9383219932205975  0.9425063701346517  0.41529104579240084  1.0000
  O   O19       1.0  0.22011500303051434  0.7507170624448918  0.6557059359620325  1.0000
  O   O20       1.0  0.4837584294145927  0.5844515413336921  0.6701242198469117  1.0000
  O   O21       1.0  0.7067792515590554  0.1999786206142744  0.7325145596405491  1.0000
  O   O22       1.0  0.6936049754731357  0.3730727322399616  0.4170957957394421  1.0000
  O   O23       1.0  0.6463183352025226  0.18064361115102656  0.8648365503759123  1.0000
  O   O24       1.0  0.4686393791344017  0.5735914086690173  0.5504410320427269  1.0000
data_image159
_chemical_formula_structural       O24
_chemical_formula_sum              "O24"
_cell_length_a       6.65259782
_cell_length_b       6.76810209
_cell_length_c       7.45043691
_cell_angle_alpha    90.0
_cell_angle_beta     90.0
_cell_angle_gamma    90.0

_space_group_name_H-M_alt    "P 1"
_space_group_IT_number       1

loop_
  _space_group_symop_operation_xyz
  'x, y, z'

loop_
  _atom_site_type_symbol
  _atom_site_label
  _atom_site_symmetry_multiplicity
  _atom_site_fract_x
  _atom_site_fract_y
  _atom_site_fract_z
  _atom_site_occupancy
  O   O1        1.0  0.7020272295922041  0.2617084961384535  0.24700508266687393  1.0000
  O   O2        1.0  0.799478390821605  0.15499856119276956  0.3062646199396113  1.0000
  O   O3        1.0  0.027385294204577804  0.5182511880993843  0.6660122140310705  1.0000
  O   O4        1.0  0.13929439955973066  0.7671979006845504  0.04849825241763028  1.0000
  O   O5        1.0  0.6892776891618269  0.3300168306668638  0.2982504505198449  1.0000
  O   O6        1.0  0.7232068628072739  0.7000545933842659  0.8626472561154515  1.0000
  O   O7        1.0  0.971701383979962  0.7296492789173499  0.42960938304895535  1.0000
  O   O8        1.0  0.3287103895272594  0.6049553996999748  0.30302309844410047  1.0000
  O   O9        1.0  0.834353213198483  0.6382811873918399  0.25055529549717903  1.0000
  O   O10       1.0  0.9725219429528806  0.7169287502183579  0.1127787565055769  1.0000
  O   O11       1.0  0.3556430684402585  0.9971999474364566  0.2410049808677286  1.0000
  O   O12       1.0  0.7353647798299789  0.8484988808631897  0.8696591071784496  1.0000
  O   O13       1.0  0.650360693980474  0.3585111197317019  0.7126073766266927  1.0000
  O   O14       1.0  0.207241399330087  0.3299002790590748  0.6709230106789619  1.0000
  O   O15       1.0  0.3743788267020136  0.5158892453182489  0.020877205533906817  1.0000
  O   O16       1.0  0.30075620231218636  0.7462178259156644  0.13455706485547125  1.0000
  O   O17       1.0  0.8320672598201782  0.19948623108211905  0.20707685708839563  1.0000
  O   O18       1.0  0.5542248609708622  0.399757263250649  0.1527459006756544  1.0000
  O   O19       1.0  0.1182322456734255  0.19742698408663273  0.9911287135328166  1.0000
  O   O20       1.0  0.48594220948871225  0.5507478159270249  0.2813128422712907  1.0000
  O   O21       1.0  0.40130034381581936  0.09046983617008664  0.3622580725350417  1.0000
  O   O22       1.0  0.9023558828048408  0.7593565067509189  0.4836044511757791  1.0000
  O   O23       1.0  0.2897305878577754  0.37359615435707383  0.6076534755411558  1.0000
  O   O24       1.0  0.60444651695434  0.21090329704748  0.7399450313532725  1.0000
data_image160
_chemical_formula_structural       O24
_chemical_formula_sum              "O24"
_cell_length_a       6.65259782
_cell_length_b       6.76810209
_cell_length_c       7.45043691
_cell_angle_alpha    90.0
_cell_angle_beta     90.0
_cell_angle_gamma    90.0

_space_group_name_H-M_alt    "P 1"
_space_group_IT_number       1

loop_
  _space_group_symop_operation_xyz
  'x, y, z'

loop_
  _atom_site_type_symbol
  _atom_site_label
  _atom_site_symmetry_multiplicity
  _atom_site_fract_x
  _atom_site_fract_y
  _atom_site_fract_z
  _atom_site_occupancy
  O   O1        1.0  0.900438841432333  0.1786541286855936  0.7898050993680954  1.0000
  O   O2        1.0  0.02556436858139932  0.9780283731524833  0.21004894582438283  1.0000
  O   O3        1.0  0.09503289335407317  0.20792107097804546  0.43038274766877294  1.0000
  O   O4        1.0  0.8359049178252462  0.6402109626214951  0.581318426569851  1.0000
  O   O5        1.0  0.08177995591540821  0.09571537557349075  0.6095963560219388  1.0000
  O   O6        1.0  0.26005221903324127  0.05510855093598366  0.1083834245800972  1.0000
  O   O7        1.0  0.27135810252366355  0.8666235093260184  0.22057556046638638  1.0000
  O   O8        1.0  0.24223102506948635  0.12177565635647625  0.41346354185952805  1.0000
  O   O9        1.0  0.5790210915729403  0.7794061481254175  0.7121613742783666  1.0000
  O   O10       1.0  0.9477638103126083  0.9471359577146359  0.6516862339922227  1.0000
  O   O11       1.0  0.5305956394877285  0.5770560183736961  0.8282485292293131  1.0000
  O   O12       1.0  0.7206342779099941  0.31843593902885914  0.7838734146207571  1.0000
  O   O13       1.0  0.6347068001632579  0.7271040927153081  0.8077667823527008  1.0000
  O   O14       1.0  0.29834355949424207  0.8557760814437643  0.0705693198251538  1.0000
  O   O15       1.0  0.46725320152472705  0.746060807723552  0.023992577102035284  1.0000
  O   O16       1.0  0.17007150943391025  0.9001863996963948  0.33245187695138156  1.0000
  O   O17       1.0  0.8771505472250283  0.26783822395373136  0.6487253218983824  1.0000
  O   O18       1.0  0.8775954840239137  0.3555910186842084  0.6057344535365701  1.0000
  O   O19       1.0  0.1998637064534705  0.856411500251852  0.4131628350005485  1.0000
  O   O20       1.0  0.9568621970247477  0.4175574884429807  0.736866979743354  1.0000
  O   O21       1.0  0.6753289976768428  0.9432894962083083  0.44574518501758575  1.0000
  O   O22       1.0  0.824072951450944  0.46454711980186403  0.3809047369286418  1.0000
  O   O23       1.0  0.9648021752946079  0.5767071779409889  0.7605461982311681  1.0000
  O   O24       1.0  0.5635734032839537  0.1228624995710561  0.43398849619552493  1.0000
data_image161
_chemical_formula_structural       O24
_chemical_formula_sum              "O24"
_cell_length_a       6.65259782
_cell_length_b       6.76810209
_cell_length_c       7.45043691
_cell_angle_alpha    90.0
_cell_angle_beta     90.0
_cell_angle_gamma    90.0

_space_group_name_H-M_alt    "P 1"
_space_group_IT_number       1

loop_
  _space_group_symop_operation_xyz
  'x, y, z'

loop_
  _atom_site_type_symbol
  _atom_site_label
  _atom_site_symmetry_multiplicity
  _atom_site_fract_x
  _atom_site_fract_y
  _atom_site_fract_z
  _atom_site_occupancy
  O   O1        1.0  0.38380480743944645  0.9655279908329248  0.238669004291296  1.0000
  O   O2        1.0  0.8691598623481696  0.17381218471564353  0.2618481573736062  1.0000
  O   O3        1.0  0.9482899131253362  0.16677217930555344  0.339491072576493  1.0000
  O   O4        1.0  0.21651965711498633  0.21304250485263765  0.20933347933601  1.0000
  O   O5        1.0  0.6914395428320859  0.04194105919305002  0.09864681281032972  1.0000
  O   O6        1.0  0.5371260121464729  0.9092258494347334  0.9443790302611887  1.0000
  O   O7        1.0  0.2906109127870877  0.32993219554191455  0.4010088756913319  1.0000
  O   O8        1.0  0.6403873702511191  0.8032941881101578  0.5086310181213776  1.0000
  O   O9        1.0  0.25502432230859995  0.2560341120697558  0.43451117537915707  1.0000
  O   O10       1.0  0.008340533502632752  0.8965665582509246  0.7254689702822361  1.0000
  O   O11       1.0  0.8896389525616542  0.33891592190775555  0.6116199800744653  1.0000
  O   O12       1.0  0.8625022154301405  0.35415404103696346  0.2570768538862467  1.0000
  O   O13       1.0  0.2527065312024206  0.1696530677145347  0.7661027633585036  1.0000
  O   O14       1.0  0.8048056866391562  0.9132215125719085  0.31362490041647106  1.0000
  O   O15       1.0  0.6504687052802183  0.8016346064396203  0.5593520367983729  1.0000
  O   O16       1.0  0.5687063382938504  0.38921031064819545  0.9488337985239923  1.0000
  O   O17       1.0  0.9683732870034873  0.12197197700152174  0.9825058972528495  1.0000
  O   O18       1.0  0.7325688836863264  0.059087373316287994  0.39338970836251974  1.0000
  O   O19       1.0  0.7884252260264475  0.2962691296124831  0.05689341219840571  1.0000
  O   O20       1.0  0.49374477099627256  0.11054804829473142  0.5476566965226084  1.0000
  O   O21       1.0  0.4625419139774749  0.11339681265235413  0.39547570963623  1.0000
  O   O22       1.0  0.7434313488192856  0.8076983924256638  0.5420334474183619  1.0000
  O   O23       1.0  0.8109289591666311  0.7322209405829199  0.45521261519752443  1.0000
  O   O24       1.0  0.13045597716700286  0.03587254523881711  0.008232922060415149  1.0000
data_image162
_chemical_formula_structural       O24
_chemical_formula_sum              "O24"
_cell_length_a       6.65259782
_cell_length_b       6.76810209
_cell_length_c       7.45043691
_cell_angle_alpha    90.0
_cell_angle_beta     90.0
_cell_angle_gamma    90.0

_space_group_name_H-M_alt    "P 1"
_space_group_IT_number       1

loop_
  _space_group_symop_operation_xyz
  'x, y, z'

loop_
  _atom_site_type_symbol
  _atom_site_label
  _atom_site_symmetry_multiplicity
  _atom_site_fract_x
  _atom_site_fract_y
  _atom_site_fract_z
  _atom_site_occupancy
  O   O1        1.0  0.9898496568202972  0.3769395425915718  0.20263691619038582  1.0000
  O   O2        1.0  0.9496065604907926  0.7583728567697108  0.9724077755963663  1.0000
  O   O3        1.0  0.4871844304725528  0.9292659386992455  0.052881984040141106  1.0000
  O   O4        1.0  0.9536525927251205  0.4728664690628648  0.44317756020245724  1.0000
  O   O5        1.0  0.3092880349577172  0.6363241707513225  0.7039754347642884  1.0000
  O   O6        1.0  0.9495922131463885  0.8176733814179897  0.13909929641522467  1.0000
  O   O7        1.0  0.8236807187258819  0.5095204065437429  0.4553390280925669  1.0000
  O   O8        1.0  0.07244395493762568  0.28817353292834014  0.07419118065445218  1.0000
  O   O9        1.0  0.16279226448386908  0.4708869137102738  0.8021885585039854  1.0000
  O   O10       1.0  0.013110075291479006  0.011115374392829835  0.5154080714419251  1.0000
  O   O11       1.0  0.5150445926119573  0.0019302308064652607  0.8749088315526024  1.0000
  O   O12       1.0  0.4381088837981224  0.5943542094901204  0.27883265167474747  1.0000
  O   O13       1.0  0.7110586035123561  0.920320762321353  0.8954139995621517  1.0000
  O   O14       1.0  0.7580253641062882  0.5403012853348628  0.7728224290185608  1.0000
  O   O15       1.0  0.4285473846248351  0.36567649943754077  0.4528840964194387  1.0000
  O   O16       1.0  0.6492001046426594  0.2733097047312185  0.28651499981060624  1.0000
  O   O17       1.0  0.5896882691886276  0.2934100547572598  0.4121720891271252  1.0000
  O   O18       1.0  0.06650185387115926  0.1640703696757555  0.4024591250345111  1.0000
  O   O19       1.0  0.01718944899039343  0.950735058169812  0.7821454879594967  1.0000
  O   O20       1.0  0.09754443622659892  0.24723670628736727  0.6026597755262628  1.0000
  O   O21       1.0  0.1834658826555824  0.08368081251683179  0.8753739736857824  1.0000
  O   O22       1.0  5.420902743935585e-05  0.8900514919077978  0.5813800562173128  1.0000
  O   O23       1.0  0.9035846849437803  0.44326704274863005  0.5369267233181745  1.0000
  O   O24       1.0  0.9307875263039023  0.9605209078144981  0.884198370622471  1.0000
data_image163
_chemical_formula_structural       O24
_chemical_formula_sum              "O24"
_cell_length_a       6.65259782
_cell_length_b       6.76810209
_cell_length_c       7.45043691
_cell_angle_alpha    90.0
_cell_angle_beta     90.0
_cell_angle_gamma    90.0

_space_group_name_H-M_alt    "P 1"
_space_group_IT_number       1

loop_
  _space_group_symop_operation_xyz
  'x, y, z'

loop_
  _atom_site_type_symbol
  _atom_site_label
  _atom_site_symmetry_multiplicity
  _atom_site_fract_x
  _atom_site_fract_y
  _atom_site_fract_z
  _atom_site_occupancy
  O   O1        1.0  0.9188873954117298  0.13229726254940033  0.4330737553536892  1.0000
  O   O2        1.0  0.33296764949773205  0.9643902079551481  0.9867423635005252  1.0000
  O   O3        1.0  0.7920670604798943  0.41845522075891495  0.9207535800524056  1.0000
  O   O4        1.0  0.23227213599602692  0.9542075155768543  0.9359923250958673  1.0000
  O   O5        1.0  0.49832093306758907  0.38462137973692734  0.4691435650456697  1.0000
  O   O6        1.0  0.6886335154995322  0.7841785829514265  0.5087824030779302  1.0000
  O   O7        1.0  0.9297374856196257  0.6758682823274285  0.545775506645441  1.0000
  O   O8        1.0  0.5380742583656684  0.971371725492645  0.42383720916404855  1.0000
  O   O9        1.0  0.2544810315594077  0.15768049494363368  0.40831782203167677  1.0000
  O   O10       1.0  0.17258163468795829  0.06102750776335597  0.007368266451521777  1.0000
  O   O11       1.0  0.24163179146125913  0.2891469825335662  0.5750183691270649  1.0000
  O   O12       1.0  0.6341960653662682  0.3929333994165063  0.6861670669168234  1.0000
  O   O13       1.0  0.9376593035121914  0.32237348903436214  0.6752463723532856  1.0000
  O   O14       1.0  0.2655353656155057  0.3212149413302541  0.21445046155713499  1.0000
  O   O15       1.0  0.06074730952968821  0.14678503083996475  0.8438024024944752  1.0000
  O   O16       1.0  0.855131778633222  0.5055471771047451  0.6489440696313977  1.0000
  O   O17       1.0  0.5941733707441017  0.9101028593140654  0.4782395079091657  1.0000
  O   O18       1.0  0.9340105801820755  0.4192191706970334  0.6963016483932734  1.0000
  O   O19       1.0  0.6523540734197013  0.5880498299375176  0.7659406516468152  1.0000
  O   O20       1.0  0.5801383332582191  0.9348364676552592  0.6318023165222257  1.0000
  O   O21       1.0  0.9909137594222557  0.8820651131536579  0.34508408018155023  1.0000
  O   O22       1.0  0.5626458963379264  0.3663942131679505  0.1196867716498673  1.0000
  O   O23       1.0  0.7804828674998134  0.2427770692447666  0.7401183259789832  1.0000
  O   O24       1.0  0.5523581126471981  0.1744598872755887  0.9394095748430118  1.0000
data_image164
_chemical_formula_structural       O24
_chemical_formula_sum              "O24"
_cell_length_a       6.65259782
_cell_length_b       6.76810209
_cell_length_c       7.45043691
_cell_angle_alpha    90.0
_cell_angle_beta     90.0
_cell_angle_gamma    90.0

_space_group_name_H-M_alt    "P 1"
_space_group_IT_number       1

loop_
  _space_group_symop_operation_xyz
  'x, y, z'

loop_
  _atom_site_type_symbol
  _atom_site_label
  _atom_site_symmetry_multiplicity
  _atom_site_fract_x
  _atom_site_fract_y
  _atom_site_fract_z
  _atom_site_occupancy
  O   O1        1.0  0.15002675354480743  0.8570854086428881  0.21612141281366348  1.0000
  O   O2        1.0  0.01812989023164846  0.752337782876566  0.07842174077813979  1.0000
  O   O3        1.0  0.5719751198776066  0.15759868174791336  0.7223850078880787  1.0000
  O   O4        1.0  0.5316451981780119  0.15416460298001766  0.47271702255966375  1.0000
  O   O5        1.0  0.5955297669279389  0.6917332464945503  0.44548722356557846  1.0000
  O   O6        1.0  0.11852881778031588  0.6235528644174337  0.7186361709609628  1.0000
  O   O7        1.0  0.765533299116214  0.4513999234768562  0.6422068297397345  1.0000
  O   O8        1.0  0.4496211686346214  0.8369961472926661  0.5369580068800133  1.0000
  O   O9        1.0  0.77985620778054  0.691692412015982  0.7595973024144769  1.0000
  O   O10       1.0  0.840675483486848  0.34350376945803873  0.6411384944221936  1.0000
  O   O11       1.0  0.43840364628704265  0.7881433356596972  0.6885901846690103  1.0000
  O   O12       1.0  0.1097024418413639  0.034821076318621635  0.7714717462658882  1.0000
  O   O13       1.0  0.4270889524486847  0.7327465760754421  0.6523851619567722  1.0000
  O   O14       1.0  0.8665393888077233  0.8317783715901896  0.42182204866549  1.0000
  O   O15       1.0  0.9542494841734879  0.42947195610031486  0.3481282771099359  1.0000
  O   O16       1.0  0.5842129623051733  0.5716399238444865  0.8786598877049983  1.0000
  O   O17       1.0  0.014145481982268393  0.2521204221993685  0.8127754681772785  1.0000
  O   O18       1.0  0.03108590969350189  0.9445143677294254  0.32822035159915686  1.0000
  O   O19       1.0  0.836707723501604  0.26592195878038183  0.6298553601955064  1.0000
  O   O20       1.0  0.2945208875462413  0.31131860373716336  0.511257711914368  1.0000
  O   O21       1.0  0.1786376967211254  0.9161689388129162  0.2516707241884433  1.0000
  O   O22       1.0  0.8102353382855654  0.9232376971049234  0.8714991468004882  1.0000
  O   O23       1.0  0.5078533611958846  0.04338763142004609  0.3633554150001146  1.0000
  O   O24       1.0  0.12509643781231716  0.3946680164663121  0.23663717310409993  1.0000
data_image165
_chemical_formula_structural       O24
_chemical_formula_sum              "O24"
_cell_length_a       6.65259782
_cell_length_b       6.76810209
_cell_length_c       7.45043691
_cell_angle_alpha    90.0
_cell_angle_beta     90.0
_cell_angle_gamma    90.0

_space_group_name_H-M_alt    "P 1"
_space_group_IT_number       1

loop_
  _space_group_symop_operation_xyz
  'x, y, z'

loop_
  _atom_site_type_symbol
  _atom_site_label
  _atom_site_symmetry_multiplicity
  _atom_site_fract_x
  _atom_site_fract_y
  _atom_site_fract_z
  _atom_site_occupancy
  O   O1        1.0  0.30434840358793736  0.244078466668725  0.07665635645389557  1.0000
  O   O2        1.0  0.8278228354283783  0.9442400200641714  0.4920860342681408  1.0000
  O   O3        1.0  0.10257407603785396  0.03647817485034466  0.46433328138664365  1.0000
  O   O4        1.0  0.0015479384455829859  0.41708665573969483  0.8774426910458715  1.0000
  O   O5        1.0  0.35196666535921395  0.5909706407692283  0.07197988056577742  1.0000
  O   O6        1.0  0.4455176955088973  0.4426078274846077  0.5792905206326395  1.0000
  O   O7        1.0  0.7491557529865531  0.7254370491136797  0.599956295802258  1.0000
  O   O8        1.0  0.22673121426487342  0.7822482382180169  0.37247912559541874  1.0000
  O   O9        1.0  0.7629343625158072  0.4192369469674304  0.4949124800041318  1.0000
  O   O10       1.0  0.7748856546531897  0.7691517861094326  0.6599549010716146  1.0000
  O   O11       1.0  0.3941902669612318  0.6362733279383974  0.7418841548496857  1.0000
  O   O12       1.0  0.10329508781433105  0.39569604955613613  0.9450512453913689  1.0000
  O   O13       1.0  0.5192399412335362  0.8148726146901026  0.20092347846366465  1.0000
  O   O14       1.0  0.7384633274923544  0.8792508988990448  0.29951732739573345  1.0000
  O   O15       1.0  0.3941297951969318  0.6911764882970601  0.47604672564193606  1.0000
  O   O16       1.0  0.15548560838215053  0.5355994902201928  0.14943170174956322  1.0000
  O   O17       1.0  0.630030290572904  0.07758083095541224  0.9699101770820562  1.0000
  O   O18       1.0  0.8802126754308119  0.34723367914557457  0.8372401334345341  1.0000
  O   O19       1.0  0.9683017280185595  0.4262711681658402  0.3136516108061187  1.0000
  O   O20       1.0  0.09874615084845573  0.5148986713538761  0.27989453671034425  1.0000
  O   O21       1.0  0.9502457232010784  0.33783903294533957  0.04083806410199031  1.0000
  O   O22       1.0  0.9009707635268569  0.14640511362813413  0.18392329616472125  1.0000
  O   O23       1.0  0.6227645638864487  0.09845580044202507  0.23141434026911156  1.0000
  O   O24       1.0  0.09644056495744735  0.7269144995952956  0.6411791425198317  1.0000
data_image166
_chemical_formula_structural       O24
_chemical_formula_sum              "O24"
_cell_length_a       6.65259782
_cell_length_b       6.76810209
_cell_length_c       7.45043691
_cell_angle_alpha    90.0
_cell_angle_beta     90.0
_cell_angle_gamma    90.0

_space_group_name_H-M_alt    "P 1"
_space_group_IT_number       1

loop_
  _space_group_symop_operation_xyz
  'x, y, z'

loop_
  _atom_site_type_symbol
  _atom_site_label
  _atom_site_symmetry_multiplicity
  _atom_site_fract_x
  _atom_site_fract_y
  _atom_site_fract_z
  _atom_site_occupancy
  O   O1        1.0  0.20141415670514107  0.7888813093304634  0.8752302005887032  1.0000
  O   O2        1.0  0.9489883905025636  0.46125398261938244  0.6926895579235861  1.0000
  O   O3        1.0  0.7594835630152375  0.41828023456037045  0.5376773863099515  1.0000
  O   O4        1.0  0.6388764965813607  0.46829777699895203  0.5404883598239394  1.0000
  O   O5        1.0  0.6992303061997518  0.17343268753029406  0.7669214367633685  1.0000
  O   O6        1.0  0.05343611445277929  0.6397354565560818  0.4651665303390473  1.0000
  O   O7        1.0  0.08593669396577752  0.8101065493538044  0.7250188121688552  1.0000
  O   O8        1.0  0.2912226079206448  0.8723439866444096  0.7866956047073472  1.0000
  O   O9        1.0  0.20627892017364502  0.39618748473003507  0.5314593715593219  1.0000
  O   O10       1.0  0.22823133811471052  0.4216662124672439  0.5636299121870252  1.0000
  O   O11       1.0  0.33336352731566876  0.5667370246810606  0.24122862273361534  1.0000
  O   O12       1.0  0.04570735804736614  0.4888831004500389  0.3193058893084526  1.0000
  O   O13       1.0  0.394286274939077  0.6634162002010271  0.17458465637173504  1.0000
  O   O14       1.0  0.06348937217262574  0.4268589559942484  0.9002014684374444  1.0000
  O   O15       1.0  0.8631331890937872  0.005438097752630711  0.2593945008702576  1.0000
  O   O16       1.0  0.7463126347865909  0.48550123011227697  0.9257307266816497  1.0000
  O   O17       1.0  0.8332430719165131  0.8951763734803535  0.7844906358586741  1.0000
  O   O18       1.0  0.48872995493002236  0.5396136222407222  0.6896686460822821  1.0000
  O   O19       1.0  0.7269260429311544  0.09946957416832447  0.5861321547999978  1.0000
  O   O20       1.0  0.7521616149460897  0.15016387794457842  0.9948836627881974  1.0000
  O   O21       1.0  0.07188627308642026  0.8924159228190547  0.6319689766387455  1.0000
  O   O22       1.0  0.959822028875351  0.41237033711513504  0.9279374657198787  1.0000
  O   O23       1.0  0.30644877068698406  0.23386758542619646  0.7281702879042768  1.0000
  O   O24       1.0  0.30139264155877754  0.6899064538738457  0.35132237535435706  1.0000
data_image167
_chemical_formula_structural       O24
_chemical_formula_sum              "O24"
_cell_length_a       6.65259782
_cell_length_b       6.76810209
_cell_length_c       7.45043691
_cell_angle_alpha    90.0
_cell_angle_beta     90.0
_cell_angle_gamma    90.0

_space_group_name_H-M_alt    "P 1"
_space_group_IT_number       1

loop_
  _space_group_symop_operation_xyz
  'x, y, z'

loop_
  _atom_site_type_symbol
  _atom_site_label
  _atom_site_symmetry_multiplicity
  _atom_site_fract_x
  _atom_site_fract_y
  _atom_site_fract_z
  _atom_site_occupancy
  O   O1        1.0  0.3510533235967159  0.2093280740082264  0.509283609688282  1.0000
  O   O2        1.0  0.8837150960571307  0.6821925482945517  0.744122410484124  1.0000
  O   O3        1.0  0.797014914220199  0.2813371643424034  0.06380049604922533  1.0000
  O   O4        1.0  0.5176479679066688  0.46458618296310306  0.6090611159452237  1.0000
  O   O5        1.0  0.5008916181977838  0.4819062603637576  0.5680436032125726  1.0000
  O   O6        1.0  0.17835651710629463  0.6523444075137377  0.36756607005372643  1.0000
  O   O7        1.0  0.3150008158736455  0.27807787363417447  0.8743920366978273  1.0000
  O   O8        1.0  0.6487435753515456  0.7810529944254085  0.03446217643795535  1.0000
  O   O9        1.0  0.6181025728583336  0.7704587902408093  0.1535218544304371  1.0000
  O   O10       1.0  0.03523222217336297  0.5656817251292523  0.6966524634153757  1.0000
  O   O11       1.0  0.1442646060604602  0.3211358994449256  0.8314559432910755  1.0000
  O   O12       1.0  0.6119021903723478  0.5797438528388739  0.5558799225836992  1.0000
  O   O13       1.0  0.6124623243231326  0.14614658243954182  0.20890413434244692  1.0000
  O   O14       1.0  0.775155681592878  0.7462561184656806  0.8233118198695593  1.0000
  O   O15       1.0  0.3421732854912989  0.35586227709427476  0.07950564729981124  1.0000
  O   O16       1.0  0.17849688231945038  0.45572674000868574  0.9110343847423792  1.0000
  O   O17       1.0  0.4956400146475062  0.6511241118423641  0.7950562564583379  1.0000
  O   O18       1.0  0.013389250845648348  0.2567163910716772  0.39184179343283176  1.0000
  O   O19       1.0  0.752829649252817  0.8537801147904247  0.07801698317052796  1.0000
  O   O20       1.0  0.8606534544378519  0.32620637511718087  0.37825518928002566  1.0000
  O   O21       1.0  0.32313849139609374  0.6591639816615498  0.8799925779458135  1.0000
  O   O22       1.0  0.3863100539892912  0.25569228106178343  0.026013849303126335  1.0000
  O   O23       1.0  0.7436826599296182  0.1347655903082341  0.6252419167794869  1.0000
  O   O24       1.0  0.9141444255947135  0.09071805673011113  0.7945808852091432  1.0000
data_image168
_chemical_formula_structural       O24
_chemical_formula_sum              "O24"
_cell_length_a       6.65259782
_cell_length_b       6.76810209
_cell_length_c       7.45043691
_cell_angle_alpha    90.0
_cell_angle_beta     90.0
_cell_angle_gamma    90.0

_space_group_name_H-M_alt    "P 1"
_space_group_IT_number       1

loop_
  _space_group_symop_operation_xyz
  'x, y, z'

loop_
  _atom_site_type_symbol
  _atom_site_label
  _atom_site_symmetry_multiplicity
  _atom_site_fract_x
  _atom_site_fract_y
  _atom_site_fract_z
  _atom_site_occupancy
  O   O1        1.0  0.5580398980528116  0.4208700582385063  0.04481329768896103  1.0000
  O   O2        1.0  0.9127862322784495  0.16698934620944783  0.6608732123568188  1.0000
  O   O3        1.0  0.5289825946092606  0.9831006154417992  0.8048057090491056  1.0000
  O   O4        1.0  0.7144334184704348  0.12421093578450382  0.72739388878108  1.0000
  O   O5        1.0  0.11587355902884156  0.08571435394696891  0.5588523630285636  1.0000
  O   O6        1.0  0.8058640416711569  0.010681124404072762  0.9295008983463049  1.0000
  O   O7        1.0  0.8250758335561841  0.4481384070822969  0.6058963582618162  1.0000
  O   O8        1.0  0.5064685350807849  0.5441912859678268  0.13660753579461016  1.0000
  O   O9        1.0  0.9900349574163556  0.41285073722247034  0.6674524303525686  1.0000
  O   O10       1.0  0.001939954876434058  0.5556076377106365  0.9739197008693736  1.0000
  O   O11       1.0  0.7172109552193433  0.6897938593174331  0.14597438357304782  1.0000
  O   O12       1.0  0.793979573994875  0.7262817965820432  0.44412353076040745  1.0000
  O   O13       1.0  0.308631317660911  0.38364725233986974  0.9985771568026394  1.0000
  O   O14       1.0  0.24785642328788526  0.6281502444762737  0.000529993325471878  1.0000
  O   O15       1.0  0.6697914420510642  0.02078189142048359  0.8625498677138239  1.0000
  O   O16       1.0  0.2778261217754334  0.5404177220189013  0.9800511635839939  1.0000
  O   O17       1.0  0.694247912382707  0.8262153974501416  0.3530522205182933  1.0000
  O   O18       1.0  0.01220389932859689  0.6610423140227795  0.3982020504772663  1.0000
  O   O19       1.0  0.903938083560206  0.7932959640165791  0.5744371962209698  1.0000
  O   O20       1.0  0.6995506869861856  0.21541494340635836  0.22465034225024283  1.0000
  O   O21       1.0  0.6058158877276583  0.48594440522720106  0.5456724679097533  1.0000
  O   O22       1.0  0.4902198766358197  0.7112879399792291  0.6934904116205871  1.0000
  O   O23       1.0  0.22832724964246154  0.38845338486135006  0.1831122076309839  1.0000
  O   O24       1.0  0.3909032126539387  0.1769231613870943  0.485458335489966  1.0000
data_image169
_chemical_formula_structural       O24
_chemical_formula_sum              "O24"
_cell_length_a       6.65259782
_cell_length_b       6.76810209
_cell_length_c       7.45043691
_cell_angle_alpha    90.0
_cell_angle_beta     90.0
_cell_angle_gamma    90.0

_space_group_name_H-M_alt    "P 1"
_space_group_IT_number       1

loop_
  _space_group_symop_operation_xyz
  'x, y, z'

loop_
  _atom_site_type_symbol
  _atom_site_label
  _atom_site_symmetry_multiplicity
  _atom_site_fract_x
  _atom_site_fract_y
  _atom_site_fract_z
  _atom_site_occupancy
  O   O1        1.0  0.18133549951016903  0.301999656483531  0.6880851406604052  1.0000
  O   O2        1.0  0.24270940426140442  0.7699201725190505  0.5919805561134126  1.0000
  O   O3        1.0  0.05535101471468806  0.6094334721565247  0.7439500344917178  1.0000
  O   O4        1.0  0.2499668119708076  0.43640286615118384  0.5434510469131055  1.0000
  O   O5        1.0  0.8601967506110668  0.8603079072199762  0.2174882593099028  1.0000
  O   O6        1.0  0.6875863904133439  0.6452883537858725  0.42906701541505754  1.0000
  O   O7        1.0  0.2903519010869786  0.422673721332103  0.19651130418060347  1.0000
  O   O8        1.0  0.7233597182494123  0.6987140646670014  0.23279057134641334  1.0000
  O   O9        1.0  0.5980180529877543  0.1514514897717163  0.7726479033008218  1.0000
  O   O10       1.0  0.8946213566523511  0.005036659014876932  0.8107639889822167  1.0000
  O   O11       1.0  0.27886457554996014  0.05354211157828104  0.8425063638715073  1.0000
  O   O12       1.0  0.25984237529337406  0.6755677908658981  0.6905214320868254  1.0000
  O   O13       1.0  0.11919962079264224  0.1904474813491106  0.5750755879562348  1.0000
  O   O14       1.0  0.31267833514721133  0.4654912082478404  0.585818555788137  1.0000
  O   O15       1.0  0.2114354828663636  0.9108956013806164  0.47253388725221157  1.0000
  O   O16       1.0  0.9414883647114038  0.15529202338075265  0.3434970953967422  1.0000
  O   O17       1.0  0.2399582089856267  0.5682873143232428  0.5600799809326418  1.0000
  O   O18       1.0  0.684710860135965  0.08703854959458113  0.7143210498616099  1.0000
  O   O19       1.0  0.5837182368850335  0.9350292424787767  0.6602050054643769  1.0000
  O   O20       1.0  0.7440155245130882  0.9514876277244184  0.7558402016293257  1.0000
  O   O21       1.0  0.1493483366793953  0.49895838102384005  0.7288328616414219  1.0000
  O   O22       1.0  0.7723633130080998  0.745195071271155  0.47103952104225755  1.0000
  O   O23       1.0  0.9485041077714413  0.023306419607251883  0.9028483761521784  1.0000
  O   O24       1.0  0.9703775047091767  0.8382378554379102  0.4701405781088397  1.0000
data_image170
_chemical_formula_structural       O24
_chemical_formula_sum              "O24"
_cell_length_a       6.65259782
_cell_length_b       6.76810209
_cell_length_c       7.45043691
_cell_angle_alpha    90.0
_cell_angle_beta     90.0
_cell_angle_gamma    90.0

_space_group_name_H-M_alt    "P 1"
_space_group_IT_number       1

loop_
  _space_group_symop_operation_xyz
  'x, y, z'

loop_
  _atom_site_type_symbol
  _atom_site_label
  _atom_site_symmetry_multiplicity
  _atom_site_fract_x
  _atom_site_fract_y
  _atom_site_fract_z
  _atom_site_occupancy
  O   O1        1.0  0.3762976620346308  0.4497582111507654  0.5689139273017645  1.0000
  O   O2        1.0  0.08778425146374502  0.37875726039055735  0.2897977764660027  1.0000
  O   O3        1.0  0.9031686999369413  0.2574327830225229  0.41946120373904705  1.0000
  O   O4        1.0  0.8481593633187003  0.5374276023358107  0.9513185221003368  1.0000
  O   O5        1.0  0.5088564426405355  0.2615031781606376  0.3107271098997444  1.0000
  O   O6        1.0  0.7166583826765418  0.10075827687978745  0.37466842122375965  1.0000
  O   O7        1.0  0.8255248268396826  0.7988691781065427  0.6903076671296731  1.0000
  O   O8        1.0  0.7264550472900737  0.48198013566434383  0.09754814891493879  1.0000
  O   O9        1.0  0.8504145462065935  0.4238962868694216  0.41690617334097624  1.0000
  O   O10       1.0  0.312125256867148  0.9800192422408145  0.5006846388132544  1.0000
  O   O11       1.0  0.025510326609946787  0.8853784885141067  0.44173433270771056  1.0000
  O   O12       1.0  0.38833913393318653  0.4701778506860137  0.38206574134528637  1.0000
  O   O13       1.0  0.7411926897475496  0.6455523859476671  0.9615520909428596  1.0000
  O   O14       1.0  0.603483254177263  0.08968766225734726  0.23353461537044495  1.0000
  O   O15       1.0  0.2886450906516984  0.3128110058605671  0.8070663958787918  1.0000
  O   O16       1.0  0.4146239741239697  0.10589885548688471  0.8647053055465221  1.0000
  O   O17       1.0  0.5424574303906411  0.07343627285445109  0.054052347331889905  1.0000
  O   O18       1.0  0.6546103620203212  0.8291670083999634  0.5147908478975296  1.0000
  O   O19       1.0  0.03004607284674421  0.6992312023066916  0.518013200344285  1.0000
  O   O20       1.0  0.2805393618764356  0.9755557677344768  0.6485265447990969  1.0000
  O   O21       1.0  0.4530422046518652  0.8350713824911509  0.6974865013035014  1.0000
  O   O22       1.0  0.24427113635465503  0.04361061844974756  0.13142355857416987  1.0000
  O   O23       1.0  0.08386085159145296  0.9975569795351475  0.8240501913878688  1.0000
  O   O24       1.0  0.09393583191558719  0.36646711894718464  0.30066099169198424  1.0000
data_image171
_chemical_formula_structural       O24
_chemical_formula_sum              "O24"
_cell_length_a       6.65259782
_cell_length_b       6.76810209
_cell_length_c       7.45043691
_cell_angle_alpha    90.0
_cell_angle_beta     90.0
_cell_angle_gamma    90.0

_space_group_name_H-M_alt    "P 1"
_space_group_IT_number       1

loop_
  _space_group_symop_operation_xyz
  'x, y, z'

loop_
  _atom_site_type_symbol
  _atom_site_label
  _atom_site_symmetry_multiplicity
  _atom_site_fract_x
  _atom_site_fract_y
  _atom_site_fract_z
  _atom_site_occupancy
  O   O1        1.0  0.20302116498351097  0.29515777714550495  0.062103187665343285  1.0000
  O   O2        1.0  0.5638400349780568  0.7969267615699209  0.1570905333792325  1.0000
  O   O3        1.0  0.46058850875124335  0.7455613575875759  0.38929183781147003  1.0000
  O   O4        1.0  0.545838397287298  0.6565700368955731  0.056669254696316784  1.0000
  O   O5        1.0  0.6416640878887847  0.5420228439033963  0.7590588988969103  1.0000
  O   O6        1.0  0.1988651044666767  0.9346772618591785  0.62941420590505  1.0000
  O   O7        1.0  0.8469318793067941  0.9074297867482528  0.9182108242530376  1.0000
  O   O8        1.0  0.6432119145465549  0.7514140662387945  0.6073241168342065  1.0000
  O   O9        1.0  0.9134171586483717  0.17554989305790514  0.8383946726098657  1.0000
  O   O10       1.0  0.9077891769993585  0.014416063233511522  0.769064466963755  1.0000
  O   O11       1.0  0.8095727852778509  0.3974045990325976  0.43297636474017054  1.0000
  O   O12       1.0  0.44476415030658245  0.7870520865544677  0.5267632268369198  1.0000
  O   O13       1.0  0.989522083022166  0.2407341549405828  0.7980823159450665  1.0000
  O   O14       1.0  0.26935465962742455  0.9280007181805559  0.3180019418359734  1.0000
  O   O15       1.0  0.2130209503811784  0.40737525187432766  0.3902923313435167  1.0000
  O   O16       1.0  0.1124723416287452  0.25551025778986514  0.14494785270653665  1.0000
  O   O17       1.0  0.4672561247134581  0.23490544874221087  0.7411901226514601  1.0000
  O   O18       1.0  0.2652400961378589  0.0022262008860707283  0.440622603520751  1.0000
  O   O19       1.0  0.6014794483198784  0.9230135609395802  0.6324952844006475  1.0000
  O   O20       1.0  0.33202482538763434  0.7940783755475422  0.02202649333048612  1.0000
  O   O21       1.0  0.7900765849190066  0.6173876074753935  0.8222046377486549  1.0000
  O   O22       1.0  0.5497158174403012  0.8314333570888266  0.3422613590955734  1.0000
  O   O23       1.0  0.500787935918197  0.6606004945933819  0.35484379718673154  1.0000
  O   O24       1.0  0.7295473301783204  0.10055646949331276  0.8466662806458771  1.0000
data_image172
_chemical_formula_structural       O24
_chemical_formula_sum              "O24"
_cell_length_a       6.65259782
_cell_length_b       6.76810209
_cell_length_c       7.45043691
_cell_angle_alpha    90.0
_cell_angle_beta     90.0
_cell_angle_gamma    90.0

_space_group_name_H-M_alt    "P 1"
_space_group_IT_number       1

loop_
  _space_group_symop_operation_xyz
  'x, y, z'

loop_
  _atom_site_type_symbol
  _atom_site_label
  _atom_site_symmetry_multiplicity
  _atom_site_fract_x
  _atom_site_fract_y
  _atom_site_fract_z
  _atom_site_occupancy
  O   O1        1.0  0.4623328223824501  0.9291868843138218  0.23227533511817455  1.0000
  O   O2        1.0  0.9855705083027715  0.3342225165106356  0.6926383108657319  1.0000
  O   O3        1.0  0.25722764362581074  0.9428087789565325  0.8233508476987481  1.0000
  O   O4        1.0  0.5017784448864404  0.24514231039211154  0.21622545086574974  1.0000
  O   O5        1.0  0.3341412674635649  0.3875314869219437  0.3013688902137801  1.0000
  O   O6        1.0  0.05373518727719784  0.35146621242165565  0.4458007994107902  1.0000
  O   O7        1.0  0.26892215015686816  0.7741505844751373  0.1756828124052845  1.0000
  O   O8        1.0  0.2302341993781738  0.7427607160643674  0.3744797577674035  1.0000
  O   O9        1.0  0.4549821559339762  0.8936186720384285  0.6004138682037592  1.0000
  O   O10       1.0  0.737871233432088  0.46133521758019924  0.5183199745111438  1.0000
  O   O11       1.0  0.022394757252186537  0.6601781482168008  0.15692754939664155  1.0000
  O   O12       1.0  0.8547452986240387  0.8982764575630426  0.18068411573767662  1.0000
  O   O13       1.0  0.24865929703810252  0.6501003276789561  0.20579865528270602  1.0000
  O   O14       1.0  0.15650117115001194  0.05130047968123108  0.8584218364558183  1.0000
  O   O15       1.0  0.9151066244230606  0.7701852961909026  0.3811945447232574  1.0000
  O   O16       1.0  0.2867085107136518  0.2706430412363261  0.829938966082409  1.0000
  O   O17       1.0  0.9354966408573091  0.9268952673883177  0.8414946148404852  1.0000
  O   O18       1.0  0.8243193208472803  0.2644083593040705  0.5329552674666047  1.0000
  O   O19       1.0  0.5531538974610157  0.5169292408972979  0.062281258273287676  1.0000
  O   O20       1.0  0.9091735071269795  0.8757332379173022  0.6572219007648528  1.0000
  O   O21       1.0  0.4909790337260347  0.564638436466339  0.9374453804339282  1.0000
  O   O22       1.0  0.5446594674140215  0.8490213986369781  0.43321824772283435  1.0000
  O   O23       1.0  0.4789988093543798  0.11220477893948555  0.41119976187292195  1.0000
  O   O24       1.0  0.49231059273006395  0.5272665062511805  0.13065846636891365  1.0000
data_image173
_chemical_formula_structural       O24
_chemical_formula_sum              "O24"
_cell_length_a       6.65259782
_cell_length_b       6.76810209
_cell_length_c       7.45043691
_cell_angle_alpha    90.0
_cell_angle_beta     90.0
_cell_angle_gamma    90.0

_space_group_name_H-M_alt    "P 1"
_space_group_IT_number       1

loop_
  _space_group_symop_operation_xyz
  'x, y, z'

loop_
  _atom_site_type_symbol
  _atom_site_label
  _atom_site_symmetry_multiplicity
  _atom_site_fract_x
  _atom_site_fract_y
  _atom_site_fract_z
  _atom_site_occupancy
  O   O1        1.0  0.27639698795974255  0.16855068318545818  0.2922202330082655  1.0000
  O   O2        1.0  0.0962670364024234  0.6316954548819922  0.6747677394014318  1.0000
  O   O3        1.0  0.44074135087430477  0.28523789532482624  0.42830668622627854  1.0000
  O   O4        1.0  0.6515383588848636  0.7127670485060662  0.31613773943718115  1.0000
  O   O5        1.0  0.9704691010992974  0.8616092092706822  0.9914525942876935  1.0000
  O   O6        1.0  0.9104530671611428  0.9602645114064217  0.39693872327916324  1.0000
  O   O7        1.0  0.7755486667228979  0.4157456808607094  0.7453367587295361  1.0000
  O   O8        1.0  0.7141552536631934  0.172326055879239  0.8156812434608582  1.0000
  O   O9        1.0  0.7512205196544528  0.34546789969317615  0.002959415316581726  1.0000
  O   O10       1.0  0.5188645027519669  0.9777613094775006  0.9102472798849703  1.0000
  O   O11       1.0  0.031992492207791656  0.7254020480904728  0.6338960946304724  1.0000
  O   O12       1.0  0.4058088380843401  0.36005137395113707  0.3781104255467653  1.0000
  O   O13       1.0  0.8747750808252022  0.04490035504568368  0.6638247391674668  1.0000
  O   O14       1.0  0.6120956391678192  0.3924406959558837  0.6212678301963024  1.0000
  O   O15       1.0  0.18898043417721055  0.22645934694446623  0.7602482340298593  1.0000
  O   O16       1.0  0.21391900372691453  0.2500383671140298  0.17954823398031294  1.0000
  O   O17       1.0  0.11689651140477508  0.6966426077415235  0.6774147016185452  1.0000
  O   O18       1.0  0.37680455402005464  0.5179291665554047  0.36437952145934105  1.0000
  O   O19       1.0  0.07786405913066119  0.061617209401447326  0.20682022233086172  1.0000
  O   O20       1.0  0.6432937202625908  0.7254571850935463  0.33556840755045414  1.0000
  O   O21       1.0  0.4955494145542616  0.9038452490058262  0.9916297913296148  1.0000
  O   O22       1.0  0.5604387256316841  0.6272374999825843  0.3694157665595412  1.0000
  O   O23       1.0  0.7158226477913558  0.9013793948106468  0.914846365854828  1.0000
  O   O24       1.0  0.5801062773680314  0.03517847404873464  0.32897773035801947  1.0000
data_image174
_chemical_formula_structural       O24
_chemical_formula_sum              "O24"
_cell_length_a       6.65259782
_cell_length_b       6.76810209
_cell_length_c       7.45043691
_cell_angle_alpha    90.0
_cell_angle_beta     90.0
_cell_angle_gamma    90.0

_space_group_name_H-M_alt    "P 1"
_space_group_IT_number       1

loop_
  _space_group_symop_operation_xyz
  'x, y, z'

loop_
  _atom_site_type_symbol
  _atom_site_label
  _atom_site_symmetry_multiplicity
  _atom_site_fract_x
  _atom_site_fract_y
  _atom_site_fract_z
  _atom_site_occupancy
  O   O1        1.0  0.3192910272628069  0.9652311354875565  0.5608512815088034  1.0000
  O   O2        1.0  0.6089620009216787  0.9207480847835541  0.7783840309712104  1.0000
  O   O3        1.0  0.8789559022989124  0.5032304394990206  0.08184120245277882  1.0000
  O   O4        1.0  0.9561933935328852  0.7720648120157421  0.21896972465037834  1.0000
  O   O5        1.0  0.7750997453695163  0.9171629612683319  0.6828937347745523  1.0000
  O   O6        1.0  0.12389978393912315  0.3226229939609766  0.08101676893420517  1.0000
  O   O7        1.0  0.7075742047309177  0.37513063772348687  0.26508289197226986  1.0000
  O   O8        1.0  0.47668294262257405  0.9780432904954068  0.9518024607386906  1.0000
  O   O9        1.0  0.6281297486275434  0.6297452914295718  0.3735522860661149  1.0000
  O   O10       1.0  0.2001768201298546  0.9824963520804886  0.5093555984844897  1.0000
  O   O11       1.0  0.538985698192846  0.9222374789096648  0.21282360248733312  1.0000
  O   O12       1.0  0.07214678078889847  0.1996661452576518  0.8418315518647432  1.0000
  O   O13       1.0  0.20207226971979253  0.5407425706507638  0.08403406734578311  1.0000
  O   O14       1.0  0.32685534399934113  0.05857843341073021  0.4761430327780545  1.0000
  O   O15       1.0  0.2946858786744997  0.05842642206698656  0.9453267937060446  1.0000
  O   O16       1.0  0.8295057096984237  0.8342825176659971  0.985354098957032  1.0000
  O   O17       1.0  0.3240655893459916  0.6413965336978436  0.5338938880231581  1.0000
  O   O18       1.0  0.8689927994273603  0.394149724394083  0.448356662876904  1.0000
  O   O19       1.0  0.2162799935322255  0.131144656566903  0.48598780641623307  1.0000
  O   O20       1.0  0.751972917933017  0.6589268764655571  0.5982524936553091  1.0000
  O   O21       1.0  0.0351607517368393  0.3516390423756093  0.10777195839909837  1.0000
  O   O22       1.0  0.28436374105513096  0.1049888918059878  0.37646713806316257  1.0000
  O   O23       1.0  0.08943769428879023  0.6892875377088785  0.029065357742638298  1.0000
  O   O24       1.0  0.49051169614540413  0.04806214207201265  0.37093777547124773  1.0000
data_image175
_chemical_formula_structural       O24
_chemical_formula_sum              "O24"
_cell_length_a       6.65259782
_cell_length_b       6.76810209
_cell_length_c       7.45043691
_cell_angle_alpha    90.0
_cell_angle_beta     90.0
_cell_angle_gamma    90.0

_space_group_name_H-M_alt    "P 1"
_space_group_IT_number       1

loop_
  _space_group_symop_operation_xyz
  'x, y, z'

loop_
  _atom_site_type_symbol
  _atom_site_label
  _atom_site_symmetry_multiplicity
  _atom_site_fract_x
  _atom_site_fract_y
  _atom_site_fract_z
  _atom_site_occupancy
  O   O1        1.0  0.19891744665801525  0.5999470613896847  0.9695485308766365  1.0000
  O   O2        1.0  0.8276735241033748  0.5711395354010165  0.9740013504342642  1.0000
  O   O3        1.0  0.34955735597759485  0.7981596812605858  0.16046875342726707  1.0000
  O   O4        1.0  0.6028249428491108  0.3100054378155619  0.0013930373679613695  1.0000
  O   O5        1.0  0.6782211837125942  0.626618143345695  0.1910113049671054  1.0000
  O   O6        1.0  0.9503367329016328  0.9682645481079817  0.7412306547630578  1.0000
  O   O7        1.0  0.7249301650153939  0.8801776102045551  0.9175382778048515  1.0000
  O   O8        1.0  0.3367636526527349  0.18552318069851026  0.7409943305829074  1.0000
  O   O9        1.0  0.39054148085415363  0.3232367930468172  0.6587687321007252  1.0000
  O   O10       1.0  0.6150568721059244  0.6061564348347019  0.6075956554925597  1.0000
  O   O11       1.0  0.2866391559364274  0.45678518898785114  0.01441057538613677  1.0000
  O   O12       1.0  0.4766982402652502  0.5314577929675579  0.9779070895165205  1.0000
  O   O13       1.0  0.006164600927149877  0.8023483315482736  0.41065644659101963  1.0000
  O   O14       1.0  0.01465370602090843  0.5330532901571132  0.4491495343390852  1.0000
  O   O15       1.0  0.7813520313357003  0.10905802436172962  0.046163324266672134  1.0000
  O   O16       1.0  0.7809595698490739  0.6991274668835104  0.5719312489964068  1.0000
  O   O17       1.0  0.8491252228850499  0.4119638877455145  0.07961621132562868  1.0000
  O   O18       1.0  0.12331803480628878  0.9430088568478823  0.7352547217160463  1.0000
  O   O19       1.0  0.4663343400461599  0.646800872462336  0.5932217833906179  1.0000
  O   O20       1.0  0.07364490983309224  0.0752873991150409  0.3932847888208926  1.0000
  O   O21       1.0  0.8089092486916343  0.9525353582430398  0.891676718427334  1.0000
  O   O22       1.0  0.7699109595268965  0.7356707819853909  0.193639671895653  1.0000
  O   O23       1.0  0.38476990163326263  0.5684680438134819  0.2063305810897873  1.0000
  O   O24       1.0  0.5026999243418686  0.6652117611956783  0.47420243779197335  1.0000
data_image176
_chemical_formula_structural       O24
_chemical_formula_sum              "O24"
_cell_length_a       6.65259782
_cell_length_b       6.76810209
_cell_length_c       7.45043691
_cell_angle_alpha    90.0
_cell_angle_beta     90.0
_cell_angle_gamma    90.0

_space_group_name_H-M_alt    "P 1"
_space_group_IT_number       1

loop_
  _space_group_symop_operation_xyz
  'x, y, z'

loop_
  _atom_site_type_symbol
  _atom_site_label
  _atom_site_symmetry_multiplicity
  _atom_site_fract_x
  _atom_site_fract_y
  _atom_site_fract_z
  _atom_site_occupancy
  O   O1        1.0  0.09724034555256367  0.4317132346332073  0.9928181860595942  1.0000
  O   O2        1.0  0.8819748954883835  0.27776545169763267  0.13518627284793183  1.0000
  O   O3        1.0  0.49751549982465804  0.46386999636888504  0.23151426436379552  1.0000
  O   O4        1.0  0.22077455490943976  0.5751572805456817  0.8223034084912797  1.0000
  O   O5        1.0  0.9457781524397433  0.24928736564470455  0.8217319668037817  1.0000
  O   O6        1.0  0.25327940471470356  0.0436302088201046  0.9290951460134238  1.0000
  O   O7        1.0  0.5259397293048096  0.3599802101380192  0.48874047421850264  1.0000
  O   O8        1.0  0.08366783586097881  0.32735692244023085  0.5297357585222926  1.0000
  O   O9        1.0  0.8562544556334615  0.979605638072826  0.44191459845751524  1.0000
  O   O10       1.0  0.6347117307886947  0.18614483281271532  0.05820422154874905  1.0000
  O   O11       1.0  0.7918115807697177  0.6875760697585065  0.429281712975353  1.0000
  O   O12       1.0  0.014415265992283821  0.5249933348968625  0.4847240746021271  1.0000
  O   O13       1.0  0.8575420732086059  0.09012168738991022  0.660434439429082  1.0000
  O   O14       1.0  0.1470256878528744  0.7012985616456717  0.5482965374249034  1.0000
  O   O15       1.0  0.8817582665069494  0.43207576242275536  0.09228761424310505  1.0000
  O   O16       1.0  0.9852344635874033  0.25508272979641333  0.45864707650616765  1.0000
  O   O17       1.0  0.32884990761522204  0.27675421873573214  0.5139998360027676  1.0000
  O   O18       1.0  0.3647975072963163  0.024727492593228817  0.15586858708411455  1.0000
  O   O19       1.0  0.08391019649570808  0.17103634640807286  0.2842940401751548  1.0000
  O   O20       1.0  0.12063814263092354  0.11719363590236753  0.6702031292952597  1.0000
  O   O21       1.0  0.9382760394510115  0.7224463728343835  0.98723025736399  1.0000
  O   O22       1.0  0.40891471272334456  0.5175753096700646  0.013898802921175957  1.0000
  O   O23       1.0  0.14704468264244497  0.2795790897216648  0.9639285791527072  1.0000
  O   O24       1.0  0.9326484909979627  0.3050336317246547  0.28565628558862954  1.0000
data_image177
_chemical_formula_structural       O24
_chemical_formula_sum              "O24"
_cell_length_a       6.65259782
_cell_length_b       6.76810209
_cell_length_c       7.45043691
_cell_angle_alpha    90.0
_cell_angle_beta     90.0
_cell_angle_gamma    90.0

_space_group_name_H-M_alt    "P 1"
_space_group_IT_number       1

loop_
  _space_group_symop_operation_xyz
  'x, y, z'

loop_
  _atom_site_type_symbol
  _atom_site_label
  _atom_site_symmetry_multiplicity
  _atom_site_fract_x
  _atom_site_fract_y
  _atom_site_fract_z
  _atom_site_occupancy
  O   O1        1.0  0.18132701702415943  0.6380781009793282  0.38401502929627895  1.0000
  O   O2        1.0  0.35055303069384536  0.4168468094430864  0.8630396182124969  1.0000
  O   O3        1.0  0.7780997743830085  0.16560501419007778  0.7401291588321328  1.0000
  O   O4        1.0  0.048544731485890225  0.8164511756040156  0.05442600026799482  1.0000
  O   O5        1.0  0.7430696490919217  0.8140741743263789  0.9392520398832858  1.0000
  O   O6        1.0  0.43639737740159035  0.6752496864646673  0.22516809310764074  1.0000
  O   O7        1.0  0.9207167193380883  0.031135000055655837  0.2087412720429711  1.0000
  O   O8        1.0  0.052977660176111385  0.4582144152955152  0.3973555848642718  1.0000
  O   O9        1.0  0.6679420387372375  0.7311296747066081  0.3215570766478777  1.0000
  O   O10       1.0  0.8248538366169669  0.10467045157565735  0.7273658304948185  1.0000
  O   O11       1.0  0.7849964774795808  0.9126036515808664  0.3516747580142692  1.0000
  O   O12       1.0  0.004337744787335396  0.17229410354048014  0.8768662419170141  1.0000
  O   O13       1.0  0.6450704904273152  0.16578311775811017  0.9969942928291857  1.0000
  O   O14       1.0  0.9388972014421597  0.6589230526587926  0.6225868799956515  1.0000
  O   O15       1.0  0.33294302609283477  0.8251563794910908  0.7314565342385322  1.0000
  O   O16       1.0  0.0748837620485574  0.07344248396111652  0.2414266155101359  1.0000
  O   O17       1.0  0.4051029928959906  0.4869886947562918  0.011254642420681193  1.0000
  O   O18       1.0  0.3457349961390719  0.34054030012339354  0.09643678832799196  1.0000
  O   O19       1.0  0.5850960441748612  0.056110437610186636  0.5631232651940081  1.0000
  O   O20       1.0  0.4294209473882802  0.9050201834761538  0.7340341985691339  1.0000
  O   O21       1.0  0.20901981549104676  0.5537615576758981  0.8859542499412782  1.0000
  O   O22       1.0  0.2354198987595737  0.7571275357040577  0.8438123133964837  1.0000
  O   O23       1.0  0.5311869368888438  0.9401656105183065  0.3706087936880067  1.0000
  O   O24       1.0  0.473411490151193  0.30063373608572874  0.8127157969865948  1.0000
data_image178
_chemical_formula_structural       O24
_chemical_formula_sum              "O24"
_cell_length_a       6.65259782
_cell_length_b       6.76810209
_cell_length_c       7.45043691
_cell_angle_alpha    90.0
_cell_angle_beta     90.0
_cell_angle_gamma    90.0

_space_group_name_H-M_alt    "P 1"
_space_group_IT_number       1

loop_
  _space_group_symop_operation_xyz
  'x, y, z'

loop_
  _atom_site_type_symbol
  _atom_site_label
  _atom_site_symmetry_multiplicity
  _atom_site_fract_x
  _atom_site_fract_y
  _atom_site_fract_z
  _atom_site_occupancy
  O   O1        1.0  0.09508165717124939  0.9932488705962896  0.8928862772881985  1.0000
  O   O2        1.0  0.9736156459039194  0.4728084742091596  0.09079851914430037  1.0000
  O   O3        1.0  0.06353099178522825  0.6034896615892649  0.9868070385418832  1.0000
  O   O4        1.0  0.1708506204886362  0.49793712026439607  0.3032420904637547  1.0000
  O   O5        1.0  0.5952318705385551  0.049023828643839806  0.43484011199325323  1.0000
  O   O6        1.0  0.0478841420263052  0.22610721923410892  0.3478897209279239  1.0000
  O   O7        1.0  0.19582707450172165  0.6065937715466134  0.7200833665556274  1.0000
  O   O8        1.0  0.05301415591384284  0.6808141109067947  0.6303451369458344  1.0000
  O   O9        1.0  0.8153813788667321  0.296777899726294  0.21258077956736088  1.0000
  O   O10       1.0  0.6746548270748463  0.7350333129579667  0.22850621535326354  1.0000
  O   O11       1.0  0.903965872421395  0.05466238982626237  0.09774700796697289  1.0000
  O   O12       1.0  0.8720522578805685  0.2709433604031801  0.1187807098031044  1.0000
  O   O13       1.0  0.291258116485551  0.5792472552275285  0.628144736867398  1.0000
  O   O14       1.0  0.024877488322090358  0.6386219428968616  0.07782079098979011  1.0000
  O   O15       1.0  0.15908417888567783  0.15078506199643016  0.6570078185759485  1.0000
  O   O16       1.0  0.7608654792420566  0.8756542391492985  0.07476657070219517  1.0000
  O   O17       1.0  0.41528977430425584  0.8456375031382777  0.7851187905980623  1.0000
  O   O18       1.0  0.20219542202539742  0.9236562475562096  0.7901472877711058  1.0000
  O   O19       1.0  0.3899451903416775  0.04439780005486682  0.5895452778786421  1.0000
  O   O20       1.0  0.68161031359341  0.15726051171077415  0.6844681560760364  1.0000
  O   O21       1.0  0.2501917212794069  0.6847501715528779  0.7001613779575564  1.0000
  O   O22       1.0  0.08138731308281422  0.12022308143787086  0.6355466898530722  1.0000
  O   O23       1.0  0.546171975787729  0.6518060432281345  0.5896164702289752  1.0000
  O   O24       1.0  0.7360360388993286  0.8405257426929893  0.7231437490554526  1.0000
data_image179
_chemical_formula_structural       O24
_chemical_formula_sum              "O24"
_cell_length_a       6.65259782
_cell_length_b       6.76810209
_cell_length_c       7.45043691
_cell_angle_alpha    90.0
_cell_angle_beta     90.0
_cell_angle_gamma    90.0

_space_group_name_H-M_alt    "P 1"
_space_group_IT_number       1

loop_
  _space_group_symop_operation_xyz
  'x, y, z'

loop_
  _atom_site_type_symbol
  _atom_site_label
  _atom_site_symmetry_multiplicity
  _atom_site_fract_x
  _atom_site_fract_y
  _atom_site_fract_z
  _atom_site_occupancy
  O   O1        1.0  0.2527094017714262  0.24895546399056911  0.06983757764101028  1.0000
  O   O2        1.0  0.5813138823214103  0.9875126771512441  0.6370539922208991  1.0000
  O   O3        1.0  0.6005431679077446  0.2478218749165535  0.5101087726652622  1.0000
  O   O4        1.0  0.2364226104982663  0.28790156776085496  0.7329442345944699  1.0000
  O   O5        1.0  0.6095975193893537  0.0016384837217628956  0.031014578766189516  1.0000
  O   O6        1.0  0.024741755798459053  0.31787332333624363  0.69436622899957  1.0000
  O   O7        1.0  0.3700794304459123  0.20866612112149596  0.31545742717571557  1.0000
  O   O8        1.0  0.8577308731037192  0.831299677665811  0.7897841150988825  1.0000
  O   O9        1.0  0.5892436746507883  0.8328156939242035  0.8509520161896944  1.0000
  O   O10       1.0  0.5321366995776771  0.7125117875402793  0.9255947684578132  1.0000
  O   O11       1.0  0.6448090618941933  0.3226777845120523  0.887029035598971  1.0000
  O   O12       1.0  0.2958276327699423  0.6804806152358651  0.7589412778615952  1.0000
  O   O13       1.0  0.638071716966806  0.2128775279270485  0.9049037676304579  1.0000
  O   O14       1.0  0.42299652320798486  0.4771307009505108  0.22913169220555574  1.0000
  O   O15       1.0  0.8386676418303978  0.37480523041449487  0.803981504868716  1.0000
  O   O16       1.0  0.6131511719431728  0.5939190615899861  0.6107716707047075  1.0000
  O   O17       1.0  0.12738491967320442  0.49677573289955035  0.400358379316458  1.0000
  O   O18       1.0  0.3672151117352769  0.4870952609926462  0.7506873467937112  1.0000
  O   O19       1.0  0.6338032285566442  0.04830119269900024  0.8898171950131655  1.0000
  O   O20       1.0  0.30589686520397663  0.8970474653760903  0.9618667489849031  1.0000
  O   O21       1.0  0.41211692582874093  0.9702171692915726  0.5749965228606015  1.0000
  O   O22       1.0  0.6218321300111711  0.2878350917599164  0.20296927681192756  1.0000
  O   O23       1.0  0.18526425026357174  0.9111060118302703  0.49044028996468114  1.0000
  O   O24       1.0  0.2384471056284383  0.5627401577949058  0.9769855849444866  1.0000
data_image180
_chemical_formula_structural       O24
_chemical_formula_sum              "O24"
_cell_length_a       6.65259782
_cell_length_b       6.76810209
_cell_length_c       7.45043691
_cell_angle_alpha    90.0
_cell_angle_beta     90.0
_cell_angle_gamma    90.0

_space_group_name_H-M_alt    "P 1"
_space_group_IT_number       1

loop_
  _space_group_symop_operation_xyz
  'x, y, z'

loop_
  _atom_site_type_symbol
  _atom_site_label
  _atom_site_symmetry_multiplicity
  _atom_site_fract_x
  _atom_site_fract_y
  _atom_site_fract_z
  _atom_site_occupancy
  O   O1        1.0  0.13615337572991848  0.3879026435315609  0.7103430237621069  1.0000
  O   O2        1.0  0.904124478383892  0.8606616147444583  0.7395456781960092  1.0000
  O   O3        1.0  0.0952704194933176  0.4525320790708065  0.1910372176207602  1.0000
  O   O4        1.0  0.62789563354454  0.4053209722042084  0.7543289861569065  1.0000
  O   O5        1.0  0.10484470124356449  0.5695479596615769  0.28544159792363644  1.0000
  O   O6        1.0  0.7114593386650085  0.8613255620002747  0.0461137886159122  1.0000
  O   O7        1.0  0.15560768701834604  0.8329191296361387  0.2682788257370703  1.0000
  O   O8        1.0  0.6938977540412452  0.9986452973680571  0.7233704540703911  1.0000
  O   O9        1.0  0.7292268704622984  0.8503316731657833  0.471259874291718  1.0000
  O   O10       1.0  0.43343616169295274  0.09825148998061195  0.5426106447557686  1.0000
  O   O11       1.0  0.5533712647738867  0.4158184622938279  0.4520357670262456  1.0000
  O   O12       1.0  0.5633647963404655  0.4412926724180579  0.056506942957639694  1.0000
  O   O13       1.0  0.7228535951289814  0.5413989461958408  0.8129164963029325  1.0000
  O   O14       1.0  0.3305885886657052  0.4456328943488188  0.12326575035694987  1.0000
  O   O15       1.0  0.8525726671214215  0.9189915000461042  0.08111641579307616  1.0000
  O   O16       1.0  0.008988512679934502  0.5081986251752824  0.6555796680040658  1.0000
  O   O17       1.0  0.035238961689174175  0.2757039630669169  0.9870390774376574  1.0000
  O   O18       1.0  0.4606582209235057  0.11345872189849615  0.8160198889672756  1.0000
  O   O19       1.0  0.514769742032513  0.3522736249724403  0.049308141169603914  1.0000
  O   O20       1.0  0.3055863603949547  0.9986668222118169  0.9645768746268004  1.0000
  O   O21       1.0  0.7464107329433318  0.9484325258381432  0.6801657150499523  1.0000
  O   O22       1.0  0.11511914478614926  0.5643029524944723  0.9167433455586433  1.0000
  O   O23       1.0  0.9670072179287672  0.5262805270031095  0.8792863780981861  1.0000
  O   O24       1.0  0.23155691084684804  0.6321152449963847  0.7931030764011666  1.0000
data_image181
_chemical_formula_structural       O24
_chemical_formula_sum              "O24"
_cell_length_a       6.65259782
_cell_length_b       6.76810209
_cell_length_c       7.45043691
_cell_angle_alpha    90.0
_cell_angle_beta     90.0
_cell_angle_gamma    90.0

_space_group_name_H-M_alt    "P 1"
_space_group_IT_number       1

loop_
  _space_group_symop_operation_xyz
  'x, y, z'

loop_
  _atom_site_type_symbol
  _atom_site_label
  _atom_site_symmetry_multiplicity
  _atom_site_fract_x
  _atom_site_fract_y
  _atom_site_fract_z
  _atom_site_occupancy
  O   O1        1.0  0.22616307996213436  0.7960489895194769  0.7532478105276823  1.0000
  O   O2        1.0  0.46883605257607996  0.9942102766945027  0.9290073249430861  1.0000
  O   O3        1.0  0.7073250596877187  0.934190422296524  0.0931587815284729  1.0000
  O   O4        1.0  0.6032532249810174  0.7629383488092571  0.3745131351533928  1.0000
  O   O5        1.0  0.36003556346986443  0.09411395143251866  0.43919715110678226  1.0000
  O   O6        1.0  0.3056545611470938  0.04866047203540802  0.7671048992779106  1.0000
  O   O7        1.0  0.2717353451625968  0.08510588807985187  0.7323489976697601  1.0000
  O   O8        1.0  0.6958069947140757  0.8920152368373238  0.6387922430876642  1.0000
  O   O9        1.0  0.518800632096827  0.44320817186962813  0.6796741737052798  1.0000
  O   O10       1.0  0.5733563354588114  0.6448726942762733  0.24875509431876708  1.0000
  O   O11       1.0  0.5103548684273846  0.8525820080249105  0.07791505858767778  1.0000
  O   O12       1.0  0.9263170380145311  0.8579006791114807  0.77169369161129  1.0000
  O   O13       1.0  0.06256408401532099  0.5129791545914486  0.6123938095988706  1.0000
  O   O14       1.0  0.06636266270652413  0.8743962188600563  0.12605444405926391  1.0000
  O   O15       1.0  0.5870751909387764  0.5360842163208872  0.508748214924708  1.0000
  O   O16       1.0  0.09794177557341754  0.7519855583668686  0.9690936564002186  1.0000
  O   O17       1.0  0.360700995195657  0.43369623442413285  0.943438655573118  1.0000
  O   O18       1.0  0.08997390430886298  0.8253177311271429  0.09370547719299793  1.0000
  O   O19       1.0  0.06273033109027892  0.8540585570735857  0.7886744904972147  1.0000
  O   O20       1.0  0.5891375908977352  0.43645474466029555  0.44303380767814815  1.0000
  O   O21       1.0  0.3851618337066611  0.27898593939607963  0.3842312570195645  1.0000
  O   O22       1.0  0.3133578519336879  0.024325522128492594  0.8806933518499136  1.0000
  O   O23       1.0  0.1627248644363135  0.09053229610435665  0.6792999152858101  1.0000
  O   O24       1.0  0.05463293398497626  0.9753423583169933  0.06521849962882698  1.0000
data_image182
_chemical_formula_structural       O24
_chemical_formula_sum              "O24"
_cell_length_a       6.65259782
_cell_length_b       6.76810209
_cell_length_c       7.45043691
_cell_angle_alpha    90.0
_cell_angle_beta     90.0
_cell_angle_gamma    90.0

_space_group_name_H-M_alt    "P 1"
_space_group_IT_number       1

loop_
  _space_group_symop_operation_xyz
  'x, y, z'

loop_
  _atom_site_type_symbol
  _atom_site_label
  _atom_site_symmetry_multiplicity
  _atom_site_fract_x
  _atom_site_fract_y
  _atom_site_fract_z
  _atom_site_occupancy
  O   O1        1.0  0.08640389889478683  0.6385067589581013  0.5880760084837675  1.0000
  O   O2        1.0  0.3839153687840735  0.3801889436435886  0.23624237222247757  1.0000
  O   O3        1.0  0.027482643723487854  0.8145076688379049  0.09790797997266054  1.0000
  O   O4        1.0  0.22283573070308194  0.7952985961455852  0.8582238940216484  1.0000
  O   O5        1.0  0.8182172152446583  0.815217474126257  0.11462523229420185  1.0000
  O   O6        1.0  0.7764053624123335  0.980400089174509  0.6471259351819754  1.0000
  O   O7        1.0  0.6488372379189968  0.406987372552976  0.24562780500855297  1.0000
  O   O8        1.0  0.0229591318347957  0.2446766029461287  0.03535611723782495  1.0000
  O   O9        1.0  0.009918155148625374  0.5216859749052674  0.0036167241632938385  1.0000
  O   O10       1.0  0.8996666416642256  0.18396890928852372  0.2843591488781385  1.0000
  O   O11       1.0  0.1796077336766757  0.37173236871603876  0.4909078616183251  1.0000
  O   O12       1.0  0.07728815637528896  0.10437291022390127  0.4754336550831795  1.0000
  O   O13       1.0  0.6301431104075164  0.022308455780148506  0.3819947959855199  1.0000
  O   O14       1.0  0.8061178574571386  0.16851343243615702  0.9825512493262067  1.0000
  O   O15       1.0  0.15402784885372967  0.9439618112519383  0.5816589135210961  1.0000
  O   O16       1.0  0.6081543639302254  0.45066500233951956  0.3300448174122721  1.0000
  O   O17       1.0  0.7659355123760179  0.6142932171351276  0.012070682918420061  1.0000
  O   O18       1.0  0.05015219375491142  0.5697751455008984  0.9211016623303294  1.0000
  O   O19       1.0  0.8760626738076098  0.10654263786273077  0.2894675638526678  1.0000
  O   O20       1.0  0.7048076093778946  0.8881111179362051  0.5003835775423795  1.0000
  O   O21       1.0  0.16851730590860825  0.6355067872791551  0.3197433328605257  1.0000
  O   O22       1.0  0.6776410536840558  0.3473900549579412  0.11597146233543754  1.0000
  O   O23       1.0  0.6168566842097789  0.7760330671444535  0.932890061121725  1.0000
  O   O24       1.0  0.7880485689383931  0.2193612725541243  0.5546130132861435  1.0000
data_image183
_chemical_formula_structural       O24
_chemical_formula_sum              "O24"
_cell_length_a       6.65259782
_cell_length_b       6.76810209
_cell_length_c       7.45043691
_cell_angle_alpha    90.0
_cell_angle_beta     90.0
_cell_angle_gamma    90.0

_space_group_name_H-M_alt    "P 1"
_space_group_IT_number       1

loop_
  _space_group_symop_operation_xyz
  'x, y, z'

loop_
  _atom_site_type_symbol
  _atom_site_label
  _atom_site_symmetry_multiplicity
  _atom_site_fract_x
  _atom_site_fract_y
  _atom_site_fract_z
  _atom_site_occupancy
  O   O1        1.0  0.11474642902612686  0.7625742070376873  0.06560348533093929  1.0000
  O   O2        1.0  0.2198709893054911  0.18613569356966764  0.15471773815806955  1.0000
  O   O3        1.0  0.8398350165225565  0.41074758023023605  0.06693314388394356  1.0000
  O   O4        1.0  0.2147647573146969  0.11776615236885846  0.4532132511740201  1.0000
  O   O5        1.0  0.3720733863010537  0.9079520436935127  0.33044348168186843  1.0000
  O   O6        1.0  0.4818919822573662  0.24906268157064915  0.18694251775741577  1.0000
  O   O7        1.0  0.6827022158540785  0.7360888437833637  0.6354606561362743  1.0000
  O   O8        1.0  0.7427181216189638  0.043643522600177675  0.49601796228671446  1.0000
  O   O9        1.0  0.3325675679370761  0.9895640155300498  0.43966227024793625  1.0000
  O   O10       1.0  0.9082467869739048  0.34216823073802516  0.11989481881028041  1.0000
  O   O11       1.0  0.024687741766683757  0.9524372792511713  0.4181306135142222  1.0000
  O   O12       1.0  0.38966789841651917  0.5616967929527164  0.09670712985098362  1.0000
  O   O13       1.0  0.2158640273846686  0.28242903761565685  0.6480204341933131  1.0000
  O   O14       1.0  0.7706458528991789  0.19282227160874754  0.4457157436409034  1.0000
  O   O15       1.0  0.6805550393182784  0.3037457012105733  0.3334157217759639  1.0000
  O   O16       1.0  0.39707766892388463  0.2697660789708607  0.13520718272775412  1.0000
  O   O17       1.0  0.40437899727839977  0.19381286250427365  0.8250499411660712  1.0000
  O   O18       1.0  0.752291502431035  0.6831319481134415  0.6264174142852426  1.0000
  O   O19       1.0  0.5381187246530317  0.8073395435931161  0.9892821176617872  1.0000
  O   O20       1.0  0.9355096741346642  0.7096327847102657  0.11818816605955362  1.0000
  O   O21       1.0  0.7430801593436627  0.7314526503614616  0.8750110227847472  1.0000
  O   O22       1.0  0.24392721289768815  0.8267619336256757  0.031215147115290165  1.0000
  O   O23       1.0  0.5067055872641504  0.48106259014457464  0.36759065435035154  1.0000
  O   O24       1.0  0.48807437624782324  0.2582117850979557  0.14115344919264317  1.0000
data_image184
_chemical_formula_structural       O24
_chemical_formula_sum              "O24"
_cell_length_a       6.65259782
_cell_length_b       6.76810209
_cell_length_c       7.45043691
_cell_angle_alpha    90.0
_cell_angle_beta     90.0
_cell_angle_gamma    90.0

_space_group_name_H-M_alt    "P 1"
_space_group_IT_number       1

loop_
  _space_group_symop_operation_xyz
  'x, y, z'

loop_
  _atom_site_type_symbol
  _atom_site_label
  _atom_site_symmetry_multiplicity
  _atom_site_fract_x
  _atom_site_fract_y
  _atom_site_fract_z
  _atom_site_occupancy
  O   O1        1.0  0.5470387283712626  0.45026826672255993  0.7514871656894684  1.0000
  O   O2        1.0  0.5070521837842534  0.0469565141829662  0.8210765513649676  1.0000
  O   O3        1.0  0.8977227793075144  0.013382574543356895  0.054609800688922405  1.0000
  O   O4        1.0  0.8389659695094451  0.21103942673653364  0.30856622658029664  1.0000
  O   O5        1.0  0.6631426375824958  0.05069897882640362  0.9282656589057297  1.0000
  O   O6        1.0  0.6137102614156902  0.06349039450287819  0.22554191201925278  1.0000
  O   O7        1.0  0.4682884476496838  0.9131245069438592  0.2659187583485618  1.0000
  O   O8        1.0  0.7104032000643201  0.9653120020520873  0.6093047598260455  1.0000
  O   O9        1.0  0.794467031955719  0.010432788403704762  0.5799868199974298  1.0000
  O   O10       1.0  0.6784223190916236  0.23289001069497317  0.26711786203668453  1.0000
  O   O11       1.0  0.5312135719577782  0.1343427041429095  0.6671044933609664  1.0000
  O   O12       1.0  0.4048907719552517  0.6563001433387399  0.028873201459646225  1.0000
  O   O13       1.0  0.6193318320438266  0.06683162413537502  0.7367411870509386  1.0000
  O   O14       1.0  0.9056761479005218  0.5319747217581607  0.17739113350398839  1.0000
  O   O15       1.0  0.8937887754291296  0.9199956604279578  0.3509340500459075  1.0000
  O   O16       1.0  0.36763688968494534  0.5048358417116106  0.9752303482964635  1.0000
  O   O17       1.0  0.6681537084514275  0.24650133994873613  0.5433456543541979  1.0000
  O   O18       1.0  0.19289335515350103  0.36815253645181656  0.8230274509223818  1.0000
  O   O19       1.0  0.8101774987298995  0.23029898287495598  0.40750240540364757  1.0000
  O   O20       1.0  0.3770451213931665  0.6303746265475638  0.46900848334189504  1.0000
  O   O21       1.0  0.9678452390944585  0.6907864323875401  0.4063047027448192  1.0000
  O   O22       1.0  0.11915172706358135  0.5222891423618421  0.9851994542405009  1.0000
  O   O23       1.0  0.4807112377602607  0.9583400804549456  0.8771796610235469  1.0000
  O   O24       1.0  0.942272359970957  0.5813875228195684  0.7402764176949859  1.0000
data_image185
_chemical_formula_structural       O24
_chemical_formula_sum              "O24"
_cell_length_a       6.65259782
_cell_length_b       6.76810209
_cell_length_c       7.45043691
_cell_angle_alpha    90.0
_cell_angle_beta     90.0
_cell_angle_gamma    90.0

_space_group_name_H-M_alt    "P 1"
_space_group_IT_number       1

loop_
  _space_group_symop_operation_xyz
  'x, y, z'

loop_
  _atom_site_type_symbol
  _atom_site_label
  _atom_site_symmetry_multiplicity
  _atom_site_fract_x
  _atom_site_fract_y
  _atom_site_fract_z
  _atom_site_occupancy
  O   O1        1.0  0.4074269887059927  0.400605583563447  0.3148824963718653  1.0000
  O   O2        1.0  0.07998185797259794  0.4622881133109331  0.16897456598235294  1.0000
  O   O3        1.0  0.5480701376218349  0.9022397641092539  0.1871604877524078  1.0000
  O   O4        1.0  0.46112611424177885  0.022186592919752002  0.039198506958200596  1.0000
  O   O5        1.0  0.1896788151934743  0.11840721685439348  0.014659916050732136  1.0000
  O   O6        1.0  0.8568159877322614  0.5534914042800665  0.9541490413248539  1.0000
  O   O7        1.0  0.5002641844912432  0.2857481132959947  0.569207186170388  1.0000
  O   O8        1.0  0.3178441243362613  0.5672116210334934  0.41282127614249475  1.0000
  O   O9        1.0  0.2047400502488017  0.42521503870375454  0.13498099334537983  1.0000
  O   O10       1.0  0.4159395005553961  0.9426918883400504  0.9391450614493806  1.0000
  O   O11       1.0  0.9964575791382231  0.06569382068119012  0.09347584925126284  1.0000
  O   O12       1.0  0.2757371533662081  0.4794031232595444  0.6490660551935434  1.0000
  O   O13       1.0  0.23206342943012714  0.15473014675080776  0.3987589068710804  1.0000
  O   O14       1.0  0.4658374725258909  0.9025884309085086  0.7679389322875068  1.0000
  O   O15       1.0  0.16840935871005058  0.6813281523063779  0.8875767490826547  1.0000
  O   O16       1.0  0.4516603755764663  0.041748240240849555  0.33266676822677255  1.0000
  O   O17       1.0  0.9490421886439435  0.6245902794180438  0.8417907835682854  1.0000
  O   O18       1.0  0.30284611973911524  0.7881071008741856  0.24159398715710267  1.0000
  O   O19       1.0  0.11604373395675793  0.8495596379507333  0.8433905686251819  1.0000
  O   O20       1.0  0.6865312668378465  0.46016608842182904  0.6936165145598352  1.0000
  O   O21       1.0  0.5317329080426134  0.9021653607487679  0.35194858122849837  1.0000
  O   O22       1.0  0.509015888441354  0.2734909658320248  0.7597413030453026  1.0000
  O   O23       1.0  0.4932106912601739  0.6574556098785251  0.3792818584188353  1.0000
  O   O24       1.0  0.8395259035751224  0.43889531766762957  0.02396799367852509  1.0000
data_image186
_chemical_formula_structural       O24
_chemical_formula_sum              "O24"
_cell_length_a       6.65259782
_cell_length_b       6.76810209
_cell_length_c       7.45043691
_cell_angle_alpha    90.0
_cell_angle_beta     90.0
_cell_angle_gamma    90.0

_space_group_name_H-M_alt    "P 1"
_space_group_IT_number       1

loop_
  _space_group_symop_operation_xyz
  'x, y, z'

loop_
  _atom_site_type_symbol
  _atom_site_label
  _atom_site_symmetry_multiplicity
  _atom_site_fract_x
  _atom_site_fract_y
  _atom_site_fract_z
  _atom_site_occupancy
  O   O1        1.0  0.7400852367281914  0.6895002592355013  0.9170628841966391  1.0000
  O   O2        1.0  0.7168086250203487  0.10862103250110522  0.10097489799954928  1.0000
  O   O3        1.0  0.19411865109577775  0.7564898133277893  0.2377351620234549  1.0000
  O   O4        1.0  0.4782694405002985  0.07560096075758338  0.05637830728664994  1.0000
  O   O5        1.0  0.8967385671567172  0.4656658135354519  0.6055225469172001  1.0000
  O   O6        1.0  0.3688732902519405  0.03486810624599457  0.46836601942777634  1.0000
  O   O7        1.0  0.5779607886215672  0.17670737276785076  0.1518870034487918  1.0000
  O   O8        1.0  0.7989896745129954  0.1519369415473193  0.4973153136088513  1.0000
  O   O9        1.0  0.2343524293974042  0.91212830808945  0.8681187434121966  1.0000
  O   O10       1.0  0.741707446242799  0.4720830167061649  0.7529289162484929  1.0000
  O   O11       1.0  0.5342927678138949  0.21427725072135217  0.38063337025232613  1.0000
  O   O12       1.0  0.25885231234133244  0.9538665916770697  0.382348146289587  1.0000
  O   O13       1.0  0.43283664900809526  0.88553929887712  0.8223040048032999  1.0000
  O   O14       1.0  0.08192997780861333  0.3749616870190948  0.2642368077649735  1.0000
  O   O15       1.0  0.04472382878884673  0.12585897417739034  0.36190088046714664  1.0000
  O   O16       1.0  0.4634392927400768  0.711983481538482  0.9308093558065593  1.0000
  O   O17       1.0  0.0014921720139682293  0.010034091304987669  0.24999511596979573  1.0000
  O   O18       1.0  0.27380549628287554  0.27683060243725777  0.6900263457209803  1.0000
  O   O19       1.0  0.9922154798405245  0.1626923881121911  0.9217871467699297  1.0000
  O   O20       1.0  0.5543170137098059  0.5046441812883131  0.11271427816245705  1.0000
  O   O21       1.0  0.5178178757196292  0.6356854168116115  0.08163018367486075  1.0000
  O   O22       1.0  0.5747021101415157  0.7714988132938743  0.7334791896864772  1.0000
  O   O23       1.0  0.6111263914499432  0.5847126597072929  0.08291114991880022  1.0000
  O   O24       1.0  0.9105461342260242  0.9438204054749804  0.32892886630725116  1.0000
data_image187
_chemical_formula_structural       O24
_chemical_formula_sum              "O24"
_cell_length_a       6.65259782
_cell_length_b       6.76810209
_cell_length_c       7.45043691
_cell_angle_alpha    90.0
_cell_angle_beta     90.0
_cell_angle_gamma    90.0

_space_group_name_H-M_alt    "P 1"
_space_group_IT_number       1

loop_
  _space_group_symop_operation_xyz
  'x, y, z'

loop_
  _atom_site_type_symbol
  _atom_site_label
  _atom_site_symmetry_multiplicity
  _atom_site_fract_x
  _atom_site_fract_y
  _atom_site_fract_z
  _atom_site_occupancy
  O   O1        1.0  0.9196459464728832  0.6728878989815712  0.829314086586237  1.0000
  O   O2        1.0  0.5294494590452814  0.92512925848132  0.9635108715156093  1.0000
  O   O3        1.0  0.8917639614082873  0.8141264542937279  0.622768203727901  1.0000
  O   O4        1.0  0.15947269031312317  0.1587152169086039  0.3355394935060758  1.0000
  O   O5        1.0  0.9836890979204327  0.4515147292986512  0.7764737585093826  1.0000
  O   O6        1.0  0.035582175478339195  0.9543659370392561  0.12463641911745071  1.0000
  O   O7        1.0  0.8449277696199715  0.5727950729196891  0.8443099393043667  1.0000
  O   O8        1.0  0.37038605753332376  0.4789095337036997  0.15546255619847216  1.0000
  O   O9        1.0  0.18444751482456923  0.8038929135072976  0.3729423498734832  1.0000
  O   O10       1.0  0.20405243904679082  0.5801467762503307  0.45242740170215257  1.0000
  O   O11       1.0  0.021254861319903284  0.7950502925377805  0.7225895160809159  1.0000
  O   O12       1.0  0.9706663750112057  0.17868665419518948  0.04366813972592354  1.0000
  O   O13       1.0  0.22268902603536844  0.3378397598862648  0.2035365328192711  1.0000
  O   O14       1.0  0.828270302794408  0.427529500273522  0.12829216854879633  1.0000
  O   O15       1.0  0.5430445652455091  0.10738338436931372  0.44449105579406023  1.0000
  O   O16       1.0  0.5632710494101048  0.13823314395267516  0.1208666986785829  1.0000
  O   O17       1.0  0.5750224026269279  0.26606209948658943  0.3806543292594142  1.0000
  O   O18       1.0  0.4943476486951113  0.25585033744573593  0.6745859430520795  1.0000
  O   O19       1.0  0.5572930640773848  0.5031953765428625  0.030971094558481127  1.0000
  O   O20       1.0  0.12014356901636347  0.6951549754594453  0.00787883554585278  1.0000
  O   O21       1.0  0.5239602565998212  0.12658034544438124  0.7043407825403847  1.0000
  O   O22       1.0  0.5680615033488721  0.06334289396181703  0.6004532659426332  1.0000
  O   O23       1.0  0.416688731405884  0.9217079232912511  0.28488681025919504  1.0000
  O   O24       1.0  0.47187110024970025  0.7709061928326264  0.1753951368154958  1.0000
data_image188
_chemical_formula_structural       O24
_chemical_formula_sum              "O24"
_cell_length_a       6.65259782
_cell_length_b       6.76810209
_cell_length_c       7.45043691
_cell_angle_alpha    90.0
_cell_angle_beta     90.0
_cell_angle_gamma    90.0

_space_group_name_H-M_alt    "P 1"
_space_group_IT_number       1

loop_
  _space_group_symop_operation_xyz
  'x, y, z'

loop_
  _atom_site_type_symbol
  _atom_site_label
  _atom_site_symmetry_multiplicity
  _atom_site_fract_x
  _atom_site_fract_y
  _atom_site_fract_z
  _atom_site_occupancy
  O   O1        1.0  0.8249483425170183  0.7024486884474754  0.7814529668539762  1.0000
  O   O2        1.0  0.3256003223123116  0.4512980680447072  0.44990042413701303  1.0000
  O   O3        1.0  0.02489514392800629  0.05460162088274956  0.6807341245003045  1.0000
  O   O4        1.0  0.30540700227720663  0.06559541495516896  0.22012061325949617  1.0000
  O   O5        1.0  0.651168200885877  0.6625222144648433  0.26774586574174464  1.0000
  O   O6        1.0  0.3386092851869762  0.325904393568635  0.3637426681816578  1.0000
  O   O7        1.0  0.5191957741044462  0.48646286164876074  0.09793933219043538  1.0000
  O   O8        1.0  0.4553882497129962  0.060888239822816104  0.4692168186593335  1.0000
  O   O9        1.0  0.08330489322543144  0.2846562701743096  0.7796344561502337  1.0000
  O   O10       1.0  0.7580507003731327  0.04738846150576137  0.18098622630350292  1.0000
  O   O11       1.0  0.7114771487540565  0.24755012287641875  0.0040494699496775866  1.0000
  O   O12       1.0  0.8416886106133461  0.059972706250846386  0.8693364933133125  1.0000
  O   O13       1.0  0.5508820256218314  0.7728307731449604  0.4279625881463289  1.0000
  O   O14       1.0  0.4446820087614469  0.15861060103634372  0.24449449899839237  1.0000
  O   O15       1.0  0.22648744843900204  0.43100373446941376  0.9789852336980402  1.0000
  O   O16       1.0  0.20081717427819967  0.04586947138886899  0.5464705992490053  1.0000
  O   O17       1.0  0.8702758597792126  0.8179938984103501  0.44264755496988073  1.0000
  O   O18       1.0  0.26146445609629154  0.9403179250657558  0.9151212641736493  1.0000
  O   O19       1.0  0.10500875301659107  0.7680477904505096  0.3490620718803257  1.0000
  O   O20       1.0  0.83689068822423  0.7556957952911034  0.1990996195236221  1.0000
  O   O21       1.0  0.7166575024602935  0.3073267085128464  0.2481680844211951  1.0000
  O   O22       1.0  0.3170074138324708  0.4251748319948092  0.5263713309541345  1.0000
  O   O23       1.0  0.20310624805279076  0.8457344206981361  0.1496273349330295  1.0000
  O   O24       1.0  0.42698831285815686  0.28211213907343335  0.8071262540761381  1.0000
data_image189
_chemical_formula_structural       O24
_chemical_formula_sum              "O24"
_cell_length_a       6.65259782
_cell_length_b       6.76810209
_cell_length_c       7.45043691
_cell_angle_alpha    90.0
_cell_angle_beta     90.0
_cell_angle_gamma    90.0

_space_group_name_H-M_alt    "P 1"
_space_group_IT_number       1

loop_
  _space_group_symop_operation_xyz
  'x, y, z'

loop_
  _atom_site_type_symbol
  _atom_site_label
  _atom_site_symmetry_multiplicity
  _atom_site_fract_x
  _atom_site_fract_y
  _atom_site_fract_z
  _atom_site_occupancy
  O   O1        1.0  0.13523561507463455  0.9126278162002563  0.9069273378700018  1.0000
  O   O2        1.0  0.9377614719958274  0.22892700490774587  0.7515587524685543  1.0000
  O   O3        1.0  0.40028327121399343  0.7918538451194763  0.9292167956009507  1.0000
  O   O4        1.0  0.6267716000729706  0.8586667235940695  0.38483444953453727  1.0000
  O   O5        1.0  0.35706203477457166  0.22164610493928194  0.5288001359440386  1.0000
  O   O6        1.0  0.37566721765324473  0.3005828708410263  0.49430982023477554  1.0000
  O   O7        1.0  0.9042074439348653  0.7321176048135385  0.06036877376027405  1.0000
  O   O8        1.0  0.0025648040464147925  0.4245012201135978  0.1729496213956736  1.0000
  O   O9        1.0  0.9478552620857954  0.7362487784121186  0.7464314270764589  1.0000
  O   O10       1.0  0.7467951415601419  0.5229767329001334  0.2688081684173085  1.0000
  O   O11       1.0  0.5812076745787635  0.5664147916249931  0.4587944932281971  1.0000
  O   O12       1.0  0.8944635968655348  0.03499839175492525  0.48954216204583645  1.0000
  O   O13       1.0  0.49144347570836544  0.5179242137819529  0.4478963278234005  1.0000
  O   O14       1.0  0.045572222326882184  0.464793790015392  0.6062191406963393  1.0000
  O   O15       1.0  0.9044627472758293  0.9945000503212214  0.8530715689994395  1.0000
  O   O16       1.0  0.1882279086858034  0.7378566539846361  0.8929507099092007  1.0000
  O   O17       1.0  0.2239461246645078  0.8657910447800532  0.3004732505069114  1.0000
  O   O18       1.0  0.1435918966308236  0.18614421784877777  0.2704995378735475  1.0000
  O   O19       1.0  0.9938787434366532  0.44036767940269783  0.2890546311973594  1.0000
  O   O20       1.0  0.21327277284581214  0.7533215009025298  0.902771552791819  1.0000
  O   O21       1.0  0.3734831552137621  0.17182209098245949  0.6546812102315016  1.0000
  O   O22       1.0  0.7752551280427724  0.9958148261066526  0.8431345410645008  1.0000
  O   O23       1.0  0.3333695768378675  0.8991212686523795  0.9558038300601766  1.0000
  O   O24       1.0  0.4036224884330295  0.6409883391825133  0.7908981039654464  1.0000
data_image190
_chemical_formula_structural       O24
_chemical_formula_sum              "O24"
_cell_length_a       6.65259782
_cell_length_b       6.76810209
_cell_length_c       7.45043691
_cell_angle_alpha    90.0
_cell_angle_beta     90.0
_cell_angle_gamma    90.0

_space_group_name_H-M_alt    "P 1"
_space_group_IT_number       1

loop_
  _space_group_symop_operation_xyz
  'x, y, z'

loop_
  _atom_site_type_symbol
  _atom_site_label
  _atom_site_symmetry_multiplicity
  _atom_site_fract_x
  _atom_site_fract_y
  _atom_site_fract_z
  _atom_site_occupancy
  O   O1        1.0  0.2873607724905014  0.83631207421422  0.9540262017399073  1.0000
  O   O2        1.0  0.9685964185937337  0.366349607007578  0.19305992129375227  1.0000
  O   O3        1.0  0.7884802382905036  0.541165117174387  0.2270970344543457  1.0000
  O   O4        1.0  0.12482888484373689  0.8587407895829529  0.8010937519575236  1.0000
  O   O5        1.0  0.7024528225883842  0.25350014958530664  0.19312234851531684  1.0000
  O   O6        1.0  0.7094846786931157  0.5096770711243153  0.1098710410296917  1.0000
  O   O7        1.0  0.3023506758036092  0.38853797561023384  0.15782819915330037  1.0000
  O   O8        1.0  0.07092509942594916  0.44790009065764025  0.40069458217476495  1.0000
  O   O9        1.0  0.9397267764434218  0.9371412100736052  0.9821749040856957  1.0000
  O   O10       1.0  0.6479775075276848  0.5072271300596185  0.35141768876928836  1.0000
  O   O11       1.0  0.810410407895688  0.5208210138953291  0.29189529339782894  1.0000
  O   O12       1.0  0.42120359279215336  0.7290397183969617  0.5505419783294201  1.0000
  O   O13       1.0  0.9799579726532102  0.8114637024700642  0.22749835811555386  1.0000
  O   O14       1.0  0.8444054383435287  0.004112361813895404  0.18085484550101683  1.0000
  O   O15       1.0  0.4009680515155196  0.8116789758205414  0.5288849296048284  1.0000
  O   O16       1.0  0.8110442226752639  0.8973779750522226  0.08900240994989872  1.0000
  O   O17       1.0  0.08685842575505376  0.36009747348725796  0.33384590642526746  1.0000
  O   O18       1.0  0.6589958891272545  0.9362415708601475  0.4642388118081726  1.0000
  O   O19       1.0  0.753485566645395  0.521470331470482  0.7948851137771271  1.0000
  O   O20       1.0  0.08057861772249453  0.2243112238647882  0.16088765277527273  1.0000
  O   O21       1.0  0.9243343212874606  0.29277924937196076  0.9045452608843334  1.0000
  O   O22       1.0  0.7635882967151701  0.9682920760242268  0.20601727534085512  1.0000
  O   O23       1.0  0.050284682773053646  0.45430921856313944  0.41890714183682576  1.0000
  O   O24       1.0  0.8717021243646741  0.8214617922349134  0.47760628117248416  1.0000
data_image191
_chemical_formula_structural       O24
_chemical_formula_sum              "O24"
_cell_length_a       6.65259782
_cell_length_b       6.76810209
_cell_length_c       7.45043691
_cell_angle_alpha    90.0
_cell_angle_beta     90.0
_cell_angle_gamma    90.0

_space_group_name_H-M_alt    "P 1"
_space_group_IT_number       1

loop_
  _space_group_symop_operation_xyz
  'x, y, z'

loop_
  _atom_site_type_symbol
  _atom_site_label
  _atom_site_symmetry_multiplicity
  _atom_site_fract_x
  _atom_site_fract_y
  _atom_site_fract_z
  _atom_site_occupancy
  O   O1        1.0  0.7254139855504036  0.9909718688577414  0.815135832875967  1.0000
  O   O2        1.0  0.9782038206067227  0.23595630493946373  0.5979382497898769  1.0000
  O   O3        1.0  0.24065586901269853  0.8906782288104296  0.49268866050988436  1.0000
  O   O4        1.0  0.3257788277696818  0.9922625853214413  0.8270130375458393  1.0000
  O   O5        1.0  0.17149073677137494  0.36368253640830517  0.5198245213832706  1.0000
  O   O6        1.0  0.5123003991320729  0.5601312350481749  0.12092655152082443  1.0000
  O   O7        1.0  0.16761263564694673  0.029849066981114447  0.9873578362166882  1.0000
  O   O8        1.0  0.2529655230755452  0.5794959051418118  0.9045182928093709  1.0000
  O   O9        1.0  0.9430679678916931  0.6710238419473171  0.5867010205984116  1.0000
  O   O10       1.0  0.7060047310369555  0.044146733096567914  0.060987040284089744  1.0000
  O   O11       1.0  0.7308569818851538  0.41436932305805385  0.07711801666300744  1.0000
  O   O12       1.0  0.968383627012372  0.7550509506836534  0.8089972864836454  1.0000
  O   O13       1.0  0.6602323604747653  0.125203475356102  0.22730963677167892  1.0000
  O   O14       1.0  0.07576012489153072  0.8329989484045655  0.7094907961436547  1.0000
  O   O15       1.0  0.9334483137354255  0.6271984679624438  0.16621013265103102  1.0000
  O   O16       1.0  0.7616441179998219  0.9863900429336354  0.801457401830703  1.0000
  O   O17       1.0  0.5608354394789785  0.1266141835367307  0.9589339823287446  1.0000
  O   O18       1.0  0.21002233121544123  0.7940082401037216  0.4879803986987099  1.0000
  O   O19       1.0  0.3794375775032677  0.2628012713394128  0.8167088214540854  1.0000
  O   O20       1.0  0.5754584156529745  0.42276045627659187  0.28080561000388116  1.0000
  O   O21       1.0  0.44188763038255274  0.6157788871787488  0.22307767736492679  1.0000
  O   O22       1.0  0.5802655108273029  0.7478518688585609  0.17838505282998085  1.0000
  O   O23       1.0  0.6947049093432724  0.9541752804070711  0.17898178927134722  1.0000
  O   O24       1.0  0.40356971317669377  0.9766085185401607  0.171449497458525  1.0000
data_image192
_chemical_formula_structural       O24
_chemical_formula_sum              "O24"
_cell_length_a       6.65259782
_cell_length_b       6.76810209
_cell_length_c       7.45043691
_cell_angle_alpha    90.0
_cell_angle_beta     90.0
_cell_angle_gamma    90.0

_space_group_name_H-M_alt    "P 1"
_space_group_IT_number       1

loop_
  _space_group_symop_operation_xyz
  'x, y, z'

loop_
  _atom_site_type_symbol
  _atom_site_label
  _atom_site_symmetry_multiplicity
  _atom_site_fract_x
  _atom_site_fract_y
  _atom_site_fract_z
  _atom_site_occupancy
  O   O1        1.0  0.6622832752764225  0.4242405276745558  0.13831966556608677  1.0000
  O   O2        1.0  0.007746053206574288  0.07929422287270427  0.5792419582139701  1.0000
  O   O3        1.0  0.45366859226487577  0.9247790891677141  0.43913129810243845  1.0000
  O   O4        1.0  0.8990856247764896  0.4256404065527022  0.7092625705408864  1.0000
  O   O5        1.0  0.22429838543757796  0.7663428131490946  0.8566036876291037  1.0000
  O   O6        1.0  0.06822975678369403  0.8416991345584393  0.8148610293865204  1.0000
  O   O7        1.0  0.56070073437877  0.39842063863761723  0.5072050617309287  1.0000
  O   O8        1.0  0.20347378286533058  0.8737852539052255  0.8248548477422446  1.0000
  O   O9        1.0  0.09077764488756657  0.948524005478248  0.5572923487052321  1.0000
  O   O10       1.0  0.9597164023434743  0.34160001276177354  0.7571369638026226  1.0000
  O   O11       1.0  0.7425463200197555  0.5901036677532829  0.7539658847963437  1.0000
  O   O12       1.0  0.8887397330254316  0.8216594215482473  0.6815747953951359  1.0000
  O   O13       1.0  0.46721408143639565  0.23178315348923206  0.8270634524524212  1.0000
  O   O14       1.0  0.9664373578852974  0.07975113624706864  0.09584995766635984  1.0000
  O   O15       1.0  0.7203381024301052  0.9766156389378011  0.13620584504678845  1.0000
  O   O16       1.0  0.46659581968560815  0.6727220978355035  0.4877895540557802  1.0000
  O   O17       1.0  0.7255157900508493  0.7499483093852177  0.5346143110655248  1.0000
  O   O18       1.0  0.10840267315506935  0.10475853458046913  0.8864647196605802  1.0000
  O   O19       1.0  0.5584657702129334  0.7574611585005186  0.9879608718911186  1.0000
  O   O20       1.0  0.36145809228764847  0.9499713326513302  0.11368313350249082  1.0000
  O   O21       1.0  0.9208270882954821  0.5819520953809842  0.7446001979988068  1.0000
  O   O22       1.0  0.7185067518148571  0.9600769215030596  0.09823872288689017  1.0000
  O   O23       1.0  0.406028218800202  0.0744320445228368  0.11463037942303345  1.0000
  O   O24       1.0  0.8189450397039764  0.4244466658565216  0.3534460220253095  1.0000
data_image193
_chemical_formula_structural       O24
_chemical_formula_sum              "O24"
_cell_length_a       6.65259782
_cell_length_b       6.76810209
_cell_length_c       7.45043691
_cell_angle_alpha    90.0
_cell_angle_beta     90.0
_cell_angle_gamma    90.0

_space_group_name_H-M_alt    "P 1"
_space_group_IT_number       1

loop_
  _space_group_symop_operation_xyz
  'x, y, z'

loop_
  _atom_site_type_symbol
  _atom_site_label
  _atom_site_symmetry_multiplicity
  _atom_site_fract_x
  _atom_site_fract_y
  _atom_site_fract_z
  _atom_site_occupancy
  O   O1        1.0  0.5955197624862194  0.6932398974895477  0.9079953357577324  1.0000
  O   O2        1.0  0.31676772518403595  0.5907691910397261  0.6504044700996019  1.0000
  O   O3        1.0  0.7255452948156744  0.9364969003945589  0.17693451792001724  1.0000
  O   O4        1.0  0.9007281978992978  0.2958653352688998  0.35555422655306756  1.0000
  O   O5        1.0  0.812409020261839  0.025002305395901203  0.693560239393264  1.0000
  O   O6        1.0  0.26716124871745706  0.9675962701439857  0.45775479823350906  1.0000
  O   O7        1.0  0.48925857432186604  0.4551591894123703  0.6314564087660983  1.0000
  O   O8        1.0  0.2350460803718306  0.7891554756788537  0.6347848018049262  1.0000
  O   O9        1.0  0.8901429232209921  0.17320861597545445  0.3156457245349884  1.0000
  O   O10       1.0  0.724934789002873  0.15833054305403493  0.2241353381832596  1.0000
  O   O11       1.0  0.1548011307604611  0.3349683310952969  0.8595189822372049  1.0000
  O   O12       1.0  0.5809714775532484  0.8730100523680449  0.21822171099483967  1.0000
  O   O13       1.0  0.8475377969443798  0.9377946779131889  0.9989757835865021  1.0000
  O   O14       1.0  0.8777349080774002  0.38204538525315  0.5101588632096536  1.0000
  O   O15       1.0  0.7003833497874439  0.6847255132161081  0.6431612032465637  1.0000
  O   O16       1.0  0.24313596915453672  0.39547353924717754  0.11643315106630325  1.0000
  O   O17       1.0  0.08788456482579932  0.7939703916199505  0.8129553016042337  1.0000
  O   O18       1.0  0.47404790110886097  0.879143875092268  0.3183512902469374  1.0000
  O   O19       1.0  0.5635491596767679  0.641901649767533  0.04321902897208929  1.0000
  O   O20       1.0  0.8869228825642494  0.06652607081923634  0.848146167001687  1.0000
  O   O21       1.0  0.4713589430321008  0.9170477410079911  0.5250865020207129  1.0000
  O   O22       1.0  0.2747940153349191  0.3938440118217841  0.2962464685551822  1.0000
  O   O23       1.0  0.4873808827251196  0.8762381388805807  0.020304615143686533  1.0000
  O   O24       1.0  0.3919839929440059  0.7384948020699085  0.7409927514381707  1.0000
data_image194
_chemical_formula_structural       O24
_chemical_formula_sum              "O24"
_cell_length_a       6.65259782
_cell_length_b       6.76810209
_cell_length_c       7.45043691
_cell_angle_alpha    90.0
_cell_angle_beta     90.0
_cell_angle_gamma    90.0

_space_group_name_H-M_alt    "P 1"
_space_group_IT_number       1

loop_
  _space_group_symop_operation_xyz
  'x, y, z'

loop_
  _atom_site_type_symbol
  _atom_site_label
  _atom_site_symmetry_multiplicity
  _atom_site_fract_x
  _atom_site_fract_y
  _atom_site_fract_z
  _atom_site_occupancy
  O   O1        1.0  0.8426712267100811  0.750640032812953  0.061646200716495514  1.0000
  O   O2        1.0  0.8998266394937673  0.22931686084484681  0.17529742035549134  1.0000
  O   O3        1.0  0.632068601436913  0.6257836427539587  0.07809295877814293  1.0000
  O   O4        1.0  0.09153414875618182  0.3695895173586905  0.77407238111482  1.0000
  O   O5        1.0  0.22852396150119603  0.2874339818954468  0.12925076764076948  1.0000
  O   O6        1.0  0.1921928278170526  0.31148332357406616  0.9194093197584152  1.0000
  O   O7        1.0  0.1727504840819165  0.22672434872947633  0.8499572250293568  1.0000
  O   O8        1.0  0.8296024877927266  0.12667597795370966  0.5379617036087438  1.0000
  O   O9        1.0  0.6124173076823354  0.5086238631047308  0.31403286196291447  1.0000
  O   O10       1.0  0.23143224988598377  0.04815469981986098  0.5993665763671743  1.0000
  O   O11       1.0  0.7574507939862087  0.6655750945792533  0.9266139575047418  1.0000
  O   O12       1.0  0.565832955762744  0.9377546291798353  0.29992477037012577  1.0000
  O   O13       1.0  0.6495136702433228  0.9486831035465002  0.3637982290238142  1.0000
  O   O14       1.0  0.49230302788782865  0.7440479401266202  0.8382453793892637  1.0000
  O   O15       1.0  0.4387564002536237  0.5552488998509943  0.025713336188346148  1.0000
  O   O16       1.0  0.6885866802185774  0.9145789499161765  0.49873211747035384  1.0000
  O   O17       1.0  0.4411938565899618  0.9135308047989383  0.08016854280140251  1.0000
  O   O18       1.0  0.3959090104326606  0.8438408374786377  0.7169822585419752  1.0000
  O   O19       1.0  0.8592948003206402  0.9680882715038024  0.7739978114259429  1.0000
  O   O20       1.0  0.006002218768117018  0.5254553202539682  0.3769998161587864  1.0000
  O   O21       1.0  0.05746386118698865  0.7740804842323996  0.6207705505075864  1.0000
  O   O22       1.0  0.915088668698445  0.862683025887236  0.23699606535956264  1.0000
  O   O23       1.0  0.20817972894292325  0.9388416409492493  0.5402201550605241  1.0000
  O   O24       1.0  0.7914048290695064  0.9231725347635802  0.261747807264328  1.0000
data_image195
_chemical_formula_structural       O24
_chemical_formula_sum              "O24"
_cell_length_a       6.65259782
_cell_length_b       6.76810209
_cell_length_c       7.45043691
_cell_angle_alpha    90.0
_cell_angle_beta     90.0
_cell_angle_gamma    90.0

_space_group_name_H-M_alt    "P 1"
_space_group_IT_number       1

loop_
  _space_group_symop_operation_xyz
  'x, y, z'

loop_
  _atom_site_type_symbol
  _atom_site_label
  _atom_site_symmetry_multiplicity
  _atom_site_fract_x
  _atom_site_fract_y
  _atom_site_fract_z
  _atom_site_occupancy
  O   O1        1.0  0.45805954188108444  0.7681936733424664  0.5159331317991018  1.0000
  O   O2        1.0  0.8617142138937197  0.4970822159666568  0.36300536763155833  1.0000
  O   O3        1.0  0.33497204165905714  0.9202792886644602  0.5748957563191652  1.0000
  O   O4        1.0  0.804067502678663  0.893727530958131  0.17864153906702995  1.0000
  O   O5        1.0  0.04467878304421902  0.5259013772010803  0.22932247398421168  1.0000
  O   O6        1.0  0.2236124975606799  0.4405579548329115  0.3144510053098202  1.0000
  O   O7        1.0  0.8942359909415245  0.5247346854303032  0.3788469336577691  1.0000
  O   O8        1.0  0.6104555053752847  0.06684618414146826  0.48548081988701597  1.0000
  O   O9        1.0  0.9481689315289259  0.0005201681051403284  0.2379369931295514  1.0000
  O   O10       1.0  0.5049263858963968  0.6658799535944127  0.5322156645706855  1.0000
  O   O11       1.0  0.2077669275458902  0.38868533982895315  0.2617192161269486  1.0000
  O   O12       1.0  0.38120248913764954  0.6023706998676062  0.3683020565658808  1.0000
  O   O13       1.0  0.626974537037313  0.6528476011008024  0.15177704021334648  1.0000
  O   O14       1.0  0.7439737630775198  0.9717403351096436  0.21826235431944951  1.0000
  O   O15       1.0  0.7535936636850238  0.3719268934801221  0.8762452062219381  1.0000
  O   O16       1.0  0.5356630417518318  0.21928818803280592  0.6502136895433068  1.0000
  O   O17       1.0  0.9099372026394121  0.9464276860235259  0.7375928702531382  1.0000
  O   O18       1.0  0.6820355160161853  0.6195129714906216  0.16288696095580235  1.0000
  O   O19       1.0  0.006651344359852374  0.15962732501793653  0.8881987593485974  1.0000
  O   O20       1.0  0.4191656397888437  0.09516310860635713  0.32935138361062855  1.0000
  O   O21       1.0  0.706762230489403  0.5867813016520813  0.4725656774826348  1.0000
  O   O22       1.0  0.572975339833647  0.8007180447457358  0.6846928084269166  1.0000
  O   O23       1.0  0.31569736765231937  0.7624319663736969  0.999775912205223  1.0000
  O   O24       1.0  0.4527096452075057  0.5187622540033772  0.38768559286836535  1.0000
data_image196
_chemical_formula_structural       O24
_chemical_formula_sum              "O24"
_cell_length_a       6.65259782
_cell_length_b       6.76810209
_cell_length_c       7.45043691
_cell_angle_alpha    90.0
_cell_angle_beta     90.0
_cell_angle_gamma    90.0

_space_group_name_H-M_alt    "P 1"
_space_group_IT_number       1

loop_
  _space_group_symop_operation_xyz
  'x, y, z'

loop_
  _atom_site_type_symbol
  _atom_site_label
  _atom_site_symmetry_multiplicity
  _atom_site_fract_x
  _atom_site_fract_y
  _atom_site_fract_z
  _atom_site_occupancy
  O   O1        1.0  0.7906799279153347  0.009562909603118896  0.5077320002019405  1.0000
  O   O2        1.0  0.30464318929080036  0.5222608284675516  0.4578173772606533  1.0000
  O   O3        1.0  0.4979030601680279  0.2170658465474844  0.6838808311149478  1.0000
  O   O4        1.0  0.7691158547095256  0.9012097781524062  0.6410872989799827  1.0000
  O   O5        1.0  0.13727496936917305  0.45385778322815895  0.7895465460605919  1.0000
  O   O6        1.0  0.35336961410939693  0.15772495605051517  0.23938524723052979  1.0000
  O   O7        1.0  0.12057427794206887  0.45869439002126455  0.5085028244648129  1.0000
  O   O8        1.0  0.615865960076917  0.5659762094728649  0.8384036352508701  1.0000
  O   O9        1.0  0.9055757224559784  0.1807983706239611  0.9308520182967186  1.0000
  O   O10       1.0  0.48960794079175685  0.8359561887627933  0.7057600946282037  1.0000
  O   O11       1.0  0.5710007888264954  0.23749798041535541  0.8275746082654223  1.0000
  O   O12       1.0  0.08826942555606365  0.7614894667640328  0.0005437508225440979  1.0000
  O   O13       1.0  0.6488935919478536  0.12229702062904835  0.14359953813254833  1.0000
  O   O14       1.0  0.24729124695295468  0.4130988752585836  0.7989688540692441  1.0000
  O   O15       1.0  0.5050901314243674  0.8107329262420535  0.7813574112951756  1.0000
  O   O16       1.0  0.9885740708559752  0.7946625648764893  0.5323210246860981  1.0000
  O   O17       1.0  0.8588406295457389  0.6883637640858069  0.9723002690006979  1.0000
  O   O18       1.0  0.5795562695711851  0.645955353975296  0.9919843759271316  1.0000
  O   O19       1.0  0.22723214095458388  0.17637029249453917  0.5561369038186967  1.0000
  O   O20       1.0  0.6922957405331545  0.047671464359154925  0.19279470946639776  1.0000
  O   O21       1.0  0.18259511643555015  0.7391902423114516  0.6944921306567267  1.0000
  O   O22       1.0  0.3187084544915706  0.38688035018276423  0.1435656175017357  1.0000
  O   O23       1.0  0.6195700749522075  0.2147281097713858  0.9849509428895544  1.0000
  O   O24       1.0  0.48747202893719077  0.6579603483405663  0.07644165132660419  1.0000
data_image197
_chemical_formula_structural       O24
_chemical_formula_sum              "O24"
_cell_length_a       6.65259782
_cell_length_b       6.76810209
_cell_length_c       7.45043691
_cell_angle_alpha    90.0
_cell_angle_beta     90.0
_cell_angle_gamma    90.0

_space_group_name_H-M_alt    "P 1"
_space_group_IT_number       1

loop_
  _space_group_symop_operation_xyz
  'x, y, z'

loop_
  _atom_site_type_symbol
  _atom_site_label
  _atom_site_symmetry_multiplicity
  _atom_site_fract_x
  _atom_site_fract_y
  _atom_site_fract_z
  _atom_site_occupancy
  O   O1        1.0  0.5913855824619532  0.3889861088246107  0.6238292157649994  1.0000
  O   O2        1.0  0.5776082342599693  0.878252777736634  0.7907216409221292  1.0000
  O   O3        1.0  0.6374550971668214  0.8496542442589998  0.20222317706793547  1.0000
  O   O4        1.0  0.3230264523954247  0.2763317378703505  0.18221553388866596  1.0000
  O   O5        1.0  0.6013220881577581  0.15442571323364973  0.34160826192237437  1.0000
  O   O6        1.0  0.6693450571037829  0.9410253949463367  0.9908438883721828  1.0000
  O   O7        1.0  0.2612925029825419  0.8731521882582456  0.7889221087098122  1.0000
  O   O8        1.0  0.7424715609522536  0.15721942769596353  0.9492544112144969  1.0000
  O   O9        1.0  0.3657194608822465  0.8510919713880867  0.7348389783874154  1.0000
  O   O10       1.0  0.025748510961420834  0.45572434325003996  0.02769297463237308  1.0000
  O   O11       1.0  0.5967857333598658  0.7988220060360618  0.857054784311913  1.0000
  O   O12       1.0  0.03229128196835518  0.023945230059325695  0.0014476869255304337  1.0000
  O   O13       1.0  0.43716595135629177  0.0726445484906435  0.03282731585204601  1.0000
  O   O14       1.0  0.13858239632099867  0.07896895380690694  0.6424461407586932  1.0000
  O   O15       1.0  0.5635591670870781  0.3416705676354468  0.9476713216863573  1.0000
  O   O16       1.0  0.7705805157311261  0.8507783823879436  0.5769985136575997  1.0000
  O   O17       1.0  0.3738106771488674  0.6759816519916058  0.7835106148559134  1.0000
  O   O18       1.0  0.1437218626961112  0.2601439319550991  0.5799942764570005  1.0000
  O   O19       1.0  0.1831492768251337  0.6090701259672642  0.022226952656637877  1.0000
  O   O20       1.0  0.92491898778826  0.9747366165101994  0.9810057965805754  1.0000
  O   O21       1.0  0.11617524235043675  0.1830297934357077  0.21373004495399073  1.0000
  O   O22       1.0  0.8923575757071376  0.5322197733912617  0.30603052908554673  1.0000
  O   O23       1.0  0.02130401285830885  0.025879577035084367  0.2904243598750327  1.0000
  O   O24       1.0  0.010222998389508575  0.7462498649692861  0.13248109363485128  1.0000
data_image198
_chemical_formula_structural       O24
_chemical_formula_sum              "O24"
_cell_length_a       6.65259782
_cell_length_b       6.76810209
_cell_length_c       7.45043691
_cell_angle_alpha    90.0
_cell_angle_beta     90.0
_cell_angle_gamma    90.0

_space_group_name_H-M_alt    "P 1"
_space_group_IT_number       1

loop_
  _space_group_symop_operation_xyz
  'x, y, z'

loop_
  _atom_site_type_symbol
  _atom_site_label
  _atom_site_symmetry_multiplicity
  _atom_site_fract_x
  _atom_site_fract_y
  _atom_site_fract_z
  _atom_site_occupancy
  O   O1        1.0  0.9875542316585779  0.29317463003098965  0.7009028885513544  1.0000
  O   O2        1.0  0.1244365134043619  0.47560076700756326  0.8681813989533111  1.0000
  O   O3        1.0  0.3209156340453774  0.3844277374446392  0.3450591592118144  1.0000
  O   O4        1.0  0.7597895633807639  0.6384604999329895  0.20163530178251676  1.0000
  O   O5        1.0  0.8375214291736484  0.8151708524674177  0.39553306880407035  1.0000
  O   O6        1.0  0.7010504780337214  0.06321523897349834  0.06469497829675674  1.0000
  O   O7        1.0  0.6828477046219632  0.5914984177798033  0.9031134170945734  1.0000
  O   O8        1.0  0.8609438898274675  0.8998412016080692  0.9472588775097392  1.0000
  O   O9        1.0  0.7431142125278711  0.4662418463267386  0.8573760874569416  1.0000
  O   O10       1.0  0.12684872339013964  0.3789238687895704  0.4458984675584361  1.0000
  O   O11       1.0  0.23228798678610474  0.8477791725308634  0.24359044688753784  1.0000
  O   O12       1.0  0.4887575414031744  0.17405730672180653  0.8483546990901232  1.0000
  O   O13       1.0  0.7153734555467963  0.2768774423748255  0.6248847469687462  1.0000
  O   O14       1.0  0.9990089174243622  0.563898810883984  0.40724080393556505  1.0000
  O   O15       1.0  0.3597186580300331  0.3979895133525133  0.4357698098756373  1.0000
  O   O16       1.0  0.12069832906126976  0.0860532964579761  0.09713705582544208  1.0000
  O   O17       1.0  0.3521008709212765  0.1226504718651995  0.879185993981082  1.0000
  O   O18       1.0  0.9523406159132719  0.6360132656991482  0.5411442617187276  1.0000
  O   O19       1.0  0.8405960264499299  0.1996774419094436  0.2455726182088256  1.0000
  O   O20       1.0  0.2284331321134232  0.06125744653400034  0.7945669592591003  1.0000
  O   O21       1.0  0.23944338806904852  0.6935284656938165  0.31760465720435604  1.0000
  O   O22       1.0  0.2592078207526356  0.7949621937004849  0.37645399756729603  1.0000
  O   O23       1.0  0.23277255112770945  0.11946609662845731  0.24218266454408877  1.0000
  O   O24       1.0  0.8342383801937103  0.019238191685872152  0.21665719232987612  1.0000
data_image199
_chemical_formula_structural       O24
_chemical_formula_sum              "O24"
_cell_length_a       6.65259782
_cell_length_b       6.76810209
_cell_length_c       7.45043691
_cell_angle_alpha    90.0
_cell_angle_beta     90.0
_cell_angle_gamma    90.0

_space_group_name_H-M_alt    "P 1"
_space_group_IT_number       1

loop_
  _space_group_symop_operation_xyz
  'x, y, z'

loop_
  _atom_site_type_symbol
  _atom_site_label
  _atom_site_symmetry_multiplicity
  _atom_site_fract_x
  _atom_site_fract_y
  _atom_site_fract_z
  _atom_site_occupancy
  O   O1        1.0  0.9892939254641533  0.014132186770439148  0.23423100635409355  1.0000
  O   O2        1.0  0.5465322749641928  0.4270517260883935  0.10001479450147599  1.0000
  O   O3        1.0  0.7403826306108385  0.7122221365571022  0.013742132112383842  1.0000
  O   O4        1.0  0.5630481943371706  0.8040139460936189  0.5985691913228948  1.0000
  O   O5        1.0  0.9893756145611405  0.4723984878510237  0.8706497526727617  1.0000
  O   O6        1.0  0.31060344772413373  0.1594508532434702  0.3347468972206116  1.0000
  O   O7        1.0  0.8642677391180769  0.769918177742511  0.977295057324227  1.0000
  O   O8        1.0  0.7628255865420215  0.779212592926342  0.001053903717547655  1.0000
  O   O9        1.0  0.4460622938349843  0.31046265410259366  0.10144052095711231  1.0000
  O   O10       1.0  0.6659312976553338  0.15507222258020192  0.6712923587037949  1.0000
  O   O11       1.0  0.029344785609282553  0.8637767424224876  0.7907842228887603  1.0000
  O   O12       1.0  0.6874735802412033  0.5856985291466117  0.9608226753771305  1.0000
  O   O13       1.0  0.3510137880221009  0.9104837756603956  0.43675873056054115  1.0000
  O   O14       1.0  0.55402373225661  0.6278220809181221  0.5911362118204124  1.0000
  O   O15       1.0  0.9510643160901964  0.2645559310913086  0.346807727124542  1.0000
  O   O16       1.0  0.9101333324797451  0.052948239143006504  0.7875153045170009  1.0000
  O   O17       1.0  0.2515535233542323  0.19873384421225637  0.702587956096977  1.0000
  O   O18       1.0  0.6143870605155826  0.2137766256928444  0.8098327871994115  1.0000
  O   O19       1.0  0.6725352510111406  0.32043713639723137  0.4221927876933478  1.0000
  O   O20       1.0  0.5618073975492734  0.29391777706041466  0.6902854626532644  1.0000
  O   O21       1.0  0.22369636280927807  0.2770441173342988  0.06797560502309352  1.0000
  O   O22       1.0  0.07610940537415445  0.053540030028671026  0.9281984204426408  1.0000
  O   O23       1.0  0.9586668487172574  0.28509088116697967  0.9711777915945277  1.0000
  O   O24       1.0  0.2798677679966204  0.4482430930584087  0.5908883824013174  1.0000
data_image200
_chemical_formula_structural       O24
_chemical_formula_sum              "O24"
_cell_length_a       6.65259782
_cell_length_b       6.76810209
_cell_length_c       7.45043691
_cell_angle_alpha    90.0
_cell_angle_beta     90.0
_cell_angle_gamma    90.0

_space_group_name_H-M_alt    "P 1"
_space_group_IT_number       1

loop_
  _space_group_symop_operation_xyz
  'x, y, z'

loop_
  _atom_site_type_symbol
  _atom_site_label
  _atom_site_symmetry_multiplicity
  _atom_site_fract_x
  _atom_site_fract_y
  _atom_site_fract_z
  _atom_site_occupancy
  O   O1        1.0  0.4622544292360544  0.2845472153276205  0.984089944511652  1.0000
  O   O2        1.0  0.9856031534563954  0.33125367417233065  0.4665415938361548  1.0000
  O   O3        1.0  0.6291857031174004  0.8046637028455734  0.4880924401804805  1.0000
  O   O4        1.0  0.3878499101410853  0.4395139964763075  0.27878446361864917  1.0000
  O   O5        1.0  0.01571355783380568  0.5739807290956378  0.2978847527410835  1.0000
  O   O6        1.0  0.1542734415270388  0.06435931101441383  0.28050053864717484  1.0000
  O   O7        1.0  0.25542540050810203  0.6450453811557963  0.22400619596010074  1.0000
  O   O8        1.0  0.9426480335532688  0.2738730711280368  0.8436964697903022  1.0000
  O   O9        1.0  0.4147494165226817  0.4580484002362937  0.16725636646151543  1.0000
  O   O10       1.0  0.683789294474991  0.6048734404030256  0.7284733431006316  1.0000
  O   O11       1.0  0.13328014011494815  0.37658431089948863  0.49925967294257134  1.0000
  O   O12       1.0  0.5775355976074934  0.01274426095187664  0.726993840187788  1.0000
  O   O13       1.0  0.09990634396672249  0.5443577785044909  0.3703294601291418  1.0000
  O   O14       1.0  0.2391682724119164  0.4122677306877449  0.8839506867807359  1.0000
  O   O15       1.0  0.8055452923290431  0.5742326905019581  0.8873759983107448  1.0000
  O   O16       1.0  0.6603054809384048  0.4699952808441594  0.11180182686075568  1.0000
  O   O17       1.0  0.5723290477471892  0.11044075561221689  0.8972286384378094  1.0000
  O   O18       1.0  0.7572757052257657  0.17537764459848404  0.5721327560022473  1.0000
  O   O19       1.0  0.3938824392389506  0.33250907890032977  0.9255642201751471  1.0000
  O   O20       1.0  0.954254183525336  0.5977851942298003  0.7081844499334693  1.0000
  O   O21       1.0  0.999121141154319  0.4423616395215504  0.09267805994022638  1.0000
  O   O22       1.0  0.8796481841709465  0.31432141340337694  0.9761391435749829  1.0000
  O   O23       1.0  0.9875192758627236  0.4842235674150288  0.895428541029105  1.0000
  O   O24       1.0  0.008736553427297622  0.6726438186233281  0.6936064768815413  1.0000
