data_image0
_chemical_formula_structural       H16S8
_chemical_formula_sum              "H16 S8"
_cell_length_a       8.83753075774048
_cell_length_b       8.83753075774048
_cell_length_c       8.83753075774048
_cell_angle_alpha    118.690318510586
_cell_angle_beta     118.69031851058598
_cell_angle_gamma    92.28380992055807

_space_group_name_H-M_alt    "P 1"
_space_group_IT_number       1

loop_
  _space_group_symop_operation_xyz
  'x, y, z'

loop_
  _atom_site_type_symbol
  _atom_site_label
  _atom_site_symmetry_multiplicity
  _atom_site_fract_x
  _atom_site_fract_y
  _atom_site_fract_z
  _atom_site_occupancy
  H   H1        1.0  0.12619199999999997  0.831213  0.85965  1.0000
  H   H2        1.0  0.6261919999999999  0.7665420000000001  0.29497900000000005  1.0000
  H   H3        1.0  0.7784359999999999  0.9834580000000002  0.3596500000000001  1.0000
  H   H4        1.0  0.278436  0.9187870000000001  0.7949790000000002  1.0000
  H   H5        1.0  0.9715639999999999  0.2665420000000001  0.14035000000000022  1.0000
  H   H6        1.0  0.471564  0.33121300000000004  0.705021  1.0000
  H   H7        1.0  0.6238079999999999  0.41878699999999996  0.64035  1.0000
  H   H8        1.0  0.12380799999999996  0.48345800000000005  0.20502099999999998  1.0000
  H   H9        1.0  0.16878699999999994  0.028436000000000062  0.294979  1.0000
  H   H10       1.0  0.2334579999999999  0.5284360000000001  0.8596500000000001  1.0000
  H   H11       1.0  0.016542  0.37619199999999997  0.794979  1.0000
  H   H12       1.0  0.08121299999999985  0.876192  0.3596500000000001  1.0000
  H   H13       1.0  0.733458  0.8738079999999999  0.7050209999999999  1.0000
  H   H14       1.0  0.6687869999999998  0.37380800000000003  0.14035  1.0000
  H   H15       1.0  0.5812129999999999  0.22156400000000004  0.20502100000000006  1.0000
  H   H16       1.0  0.516542  0.721564  0.64035  1.0000
  S   S1        1.0  0.12499999999999982  0.8490570000000001  0.224057  1.0000
  S   S2        1.0  0.6249999999999999  0.40094300000000005  0.27594300000000005  1.0000
  S   S3        1.0  0.125  0.3490570000000002  0.724057  1.0000
  S   S4        1.0  0.6249999999999999  0.900943  0.7759430000000002  1.0000
  S   S5        1.0  0.15094299999999997  0.375  0.27594300000000005  1.0000
  S   S6        1.0  0.599057  0.8750000000000001  0.2240570000000001  1.0000
  S   S7        1.0  0.650943  0.37500000000000006  0.775943  1.0000
  S   S8        1.0  0.09905699999999996  0.8750000000000002  0.724057  1.0000
data_image1
_chemical_formula_structural       H16S8
_chemical_formula_sum              "H16 S8"
_cell_length_a       8.83753075774048
_cell_length_b       8.83753075774048
_cell_length_c       8.83753075774048
_cell_angle_alpha    118.690318510586
_cell_angle_beta     118.69031851058598
_cell_angle_gamma    92.28380992055807

_space_group_name_H-M_alt    "P 1"
_space_group_IT_number       1

loop_
  _space_group_symop_operation_xyz
  'x, y, z'

loop_
  _atom_site_type_symbol
  _atom_site_label
  _atom_site_symmetry_multiplicity
  _atom_site_fract_x
  _atom_site_fract_y
  _atom_site_fract_z
  _atom_site_occupancy
  H   H1        1.0  0.17817157023358413  0.8951262701877633  0.8423234953722438  1.0000
  H   H2        1.0  0.5859193447905097  0.935790269393026  0.18759923353774793  1.0000
  H   H3        1.0  0.4253027956464617  0.7467192841779431  0.10071545198813903  1.0000
  H   H4        1.0  0.9440383695778282  0.7534660331105079  0.6290378166773117  1.0000
  H   H5        1.0  0.9340050936326919  0.19856934249482067  0.14761721342722267  1.0000
  H   H6        1.0  0.5968298959730772  0.5188512873216715  0.6433398210872514  1.0000
  H   H7        1.0  0.518765586397594  0.351440709324973  0.6573301951729407  1.0000
  H   H8        1.0  0.14533051577549863  0.20733436575464342  0.26935745565128083  1.0000
  H   H9        1.0  0.17864078835863673  0.9489915048930995  0.42981020438689593  1.0000
  H   H10       1.0  0.027307093944589855  0.18510679493233637  0.5789133176150036  1.0000
  H   H11       1.0  0.10580717860127364  0.368484987818669  0.8706067168916798  1.0000
  H   H12       1.0  0.03175809896758693  0.9329888089328343  0.2281188374518702  1.0000
  H   H13       1.0  0.5213560317183402  0.9086632155039174  0.8145875456320263  1.0000
  H   H14       1.0  0.45594552614117057  0.3235713789860834  0.12296190307163568  1.0000
  H   H15       1.0  0.4814929618338085  0.5512358730282587  0.1890778351948192  1.0000
  H   H16       1.0  0.7887218492130347  0.9885711697622523  0.8969188987514025  1.0000
  S   S1        1.0  0.13264623586560798  0.8058232945168381  0.2531861513814258  1.0000
  S   S2        1.0  0.6046191511319616  0.4538012645647099  0.24571059994249736  1.0000
  S   S3        1.0  0.1976426405078672  0.3500162185432541  0.7828931666577263  1.0000
  S   S4        1.0  0.6091702551996286  0.8728706207645005  0.7380825053200001  1.0000
  S   S5        1.0  0.11069150786661028  0.32448694134075023  0.25148771392197433  1.0000
  S   S6        1.0  0.6134668668444848  0.8475958004323009  0.28007235649572043  1.0000
  S   S7        1.0  0.6940825442365355  0.45501656855098316  0.7776867874387364  1.0000
  S   S8        1.0  0.07154319224932373  0.8923514347736212  0.6801014732427482  1.0000
data_image2
_chemical_formula_structural       H16S8
_chemical_formula_sum              "H16 S8"
_cell_length_a       8.83753075774048
_cell_length_b       8.83753075774048
_cell_length_c       8.83753075774048
_cell_angle_alpha    118.690318510586
_cell_angle_beta     118.69031851058598
_cell_angle_gamma    92.28380992055807

_space_group_name_H-M_alt    "P 1"
_space_group_IT_number       1

loop_
  _space_group_symop_operation_xyz
  'x, y, z'

loop_
  _atom_site_type_symbol
  _atom_site_label
  _atom_site_symmetry_multiplicity
  _atom_site_fract_x
  _atom_site_fract_y
  _atom_site_fract_z
  _atom_site_occupancy
  H   H1        1.0  0.13190373614892043  0.8472366079161535  0.8175617479402184  1.0000
  H   H2        1.0  0.45653636992179847  0.7413002751892098  0.2874107133407084  1.0000
  H   H3        1.0  0.5669541943776117  0.7924678773635451  0.16928315531587312  1.0000
  H   H4        1.0  0.16452077039235288  0.9814780689201715  0.6298819781726706  1.0000
  H   H5        1.0  0.266929507747391  0.2719893863752816  0.3085556685343827  1.0000
  H   H6        1.0  0.7060182729493286  0.3190483970834904  0.593424199954707  1.0000
  H   H7        1.0  0.8465196975762997  0.5184382227411666  0.9613064800039016  1.0000
  H   H8        1.0  0.9877964123073439  0.2524511767835651  0.21977731875591974  1.0000
  H   H9        1.0  0.2253664111974527  0.7103908155913645  0.26174303904189583  1.0000
  H   H10       1.0  0.9638873245876756  0.14509276251463923  0.5269223734541003  1.0000
  H   H11       1.0  0.09882535375985789  0.4469903035074398  0.97872786911131  1.0000
  H   H12       1.0  0.17876996973224418  0.7776894455382118  0.4832710068662326  1.0000
  H   H13       1.0  0.8347320773927518  0.868078141690552  0.7353228465842168  1.0000
  H   H14       1.0  0.663681999368876  0.40633495055304125  0.3637955848746965  1.0000
  H   H15       1.0  0.9054046014011795  0.45001322691061907  0.39405533324487013  1.0000
  H   H16       1.0  0.6974263184259789  0.6652010562473585  0.598543870176711  1.0000
  S   S1        1.0  0.05489572335915486  0.7183179294344024  0.2764327539985746  1.0000
  S   S2        1.0  0.7234620935131915  0.4669367217753535  0.27498161170113145  1.0000
  S   S3        1.0  0.1897565781016053  0.43487037573469417  0.8754969088307542  1.0000
  S   S4        1.0  0.651013986736759  0.8197470399995616  0.6400152579080813  1.0000
  S   S5        1.0  0.11449716827020918  0.30043911925526007  0.19989420865520854  1.0000
  S   S6        1.0  0.5161238861682715  0.8905103407953784  0.2956468783212507  1.0000
  S   S7        1.0  0.7144221398336468  0.48830171958951035  0.7704209284277098  1.0000
  S   S8        1.0  0.021114211879583105  0.9086288816744262  0.6593255453035731  1.0000
data_image3
_chemical_formula_structural       H16S8
_chemical_formula_sum              "H16 S8"
_cell_length_a       8.83753075774048
_cell_length_b       8.83753075774048
_cell_length_c       8.83753075774048
_cell_angle_alpha    118.690318510586
_cell_angle_beta     118.69031851058598
_cell_angle_gamma    92.28380992055807

_space_group_name_H-M_alt    "P 1"
_space_group_IT_number       1

loop_
  _space_group_symop_operation_xyz
  'x, y, z'

loop_
  _atom_site_type_symbol
  _atom_site_label
  _atom_site_symmetry_multiplicity
  _atom_site_fract_x
  _atom_site_fract_y
  _atom_site_fract_z
  _atom_site_occupancy
  H   H1        1.0  0.33577805181070364  0.17477575839594772  0.9527563019469866  1.0000
  H   H2        1.0  0.5859221969220376  0.8569940349712039  0.30963671843768303  1.0000
  H   H3        1.0  0.6738984743780537  0.06218363807754157  0.5585705677084766  1.0000
  H   H4        1.0  0.18453519913462213  0.11471440839769609  0.6225791952615732  1.0000
  H   H5        1.0  0.8885232577157812  0.3299916535098407  0.003059135998230092  1.0000
  H   H6        1.0  0.8363165525590969  0.5832795099884427  0.8071343680976938  1.0000
  H   H7        1.0  0.7908522727361091  0.40511025961292274  0.8628329775341198  1.0000
  H   H8        1.0  0.16714015706325036  0.4689926333719147  0.30677739247218566  1.0000
  H   H9        1.0  0.022466959066119774  0.7968439226730208  0.21682267786705473  1.0000
  H   H10       1.0  0.13733903655827218  0.5522548910208367  0.11712062206062657  1.0000
  H   H11       1.0  0.14724223747086218  0.3626132409563253  0.704463736520227  1.0000
  H   H12       1.0  0.15726172296071048  0.8559932778239101  0.6185255967154967  1.0000
  H   H13       1.0  0.699211625341984  0.7066510277498702  0.5970565368665204  1.0000
  H   H14       1.0  0.8739060632374831  0.34361533156705737  0.24093705935528742  1.0000
  H   H15       1.0  0.6669423733901702  0.43372495343714024  0.07440977673110846  1.0000
  H   H16       1.0  0.7972441448215848  0.9484323453334834  0.8483541411901863  1.0000
  S   S1        1.0  0.06168147925093339  0.6846017439819567  0.2772444088911458  1.0000
  S   S2        1.0  0.6746174109943581  0.34661020022199857  0.15157145026192514  1.0000
  S   S3        1.0  0.25244225511108326  0.42353866493561393  0.9020970430399965  1.0000
  S   S4        1.0  0.6165197913378233  0.7936753553549711  0.6702824554132274  1.0000
  S   S5        1.0  0.05806629458132609  0.27755403470773576  0.16383148122286414  1.0000
  S   S6        1.0  0.5005550814661952  0.9737376516545339  0.35850992487373334  1.0000
  S   S7        1.0  0.6792588962148953  0.47586768252123945  0.7722646724153649  1.0000
  S   S8        1.0  0.17003249702563017  0.051453994206799525  0.7468283377973913  1.0000
data_image4
_chemical_formula_structural       H16S8
_chemical_formula_sum              "H16 S8"
_cell_length_a       8.83753075774048
_cell_length_b       8.83753075774048
_cell_length_c       8.83753075774048
_cell_angle_alpha    118.690318510586
_cell_angle_beta     118.69031851058598
_cell_angle_gamma    92.28380992055807

_space_group_name_H-M_alt    "P 1"
_space_group_IT_number       1

loop_
  _space_group_symop_operation_xyz
  'x, y, z'

loop_
  _atom_site_type_symbol
  _atom_site_label
  _atom_site_symmetry_multiplicity
  _atom_site_fract_x
  _atom_site_fract_y
  _atom_site_fract_z
  _atom_site_occupancy
  H   H1        1.0  0.20301688494692188  0.9761771042603249  0.8103228571467609  1.0000
  H   H2        1.0  0.35515802891250503  0.7878309693801647  0.05410535904708938  1.0000
  H   H3        1.0  0.647789108692524  0.07258048142677676  0.41775955181300073  1.0000
  H   H4        1.0  0.21003747655728516  0.3191846828435194  0.8565604768107479  1.0000
  H   H5        1.0  0.042222518683937116  0.2949333287439225  0.048347281982113285  1.0000
  H   H6        1.0  0.6944256576283384  0.5563502437096697  0.0006854237198195001  1.0000
  H   H7        1.0  0.4250743202914279  0.3320958832565285  0.8778175029234291  1.0000
  H   H8        1.0  0.3418220314226498  0.33944598513649166  0.3286925955753351  1.0000
  H   H9        1.0  0.2879386930889048  0.8565652420049973  0.435889267011494  1.0000
  H   H10       1.0  0.1274289898913098  0.8490860958974038  0.17929601133024453  1.0000
  H   H11       1.0  0.44110447680202414  0.6062983144680234  0.1430617756683643  1.0000
  H   H12       1.0  0.9131211866385431  0.9392154063554016  0.5867100355662027  1.0000
  H   H13       1.0  0.4993839843903821  0.7977274626279295  0.6555484137697517  1.0000
  H   H14       1.0  0.853878543301369  0.5534048877955635  0.3150676798732988  1.0000
  H   H15       1.0  0.708252036214841  0.41194935995181525  0.388594852627455  1.0000
  H   H16       1.0  0.5481275577654927  0.5564343529513874  0.45927276697053215  1.0000
  S   S1        1.0  0.08889760699866031  0.7193420901088575  0.24065704514680655  1.0000
  S   S2        1.0  0.7174611890367647  0.37320391830119093  0.22323972014118887  1.0000
  S   S3        1.0  0.3289142129637918  0.4615979636334996  0.9015856762229849  1.0000
  S   S4        1.0  0.613718593906985  0.7087301674169328  0.6539042199481024  1.0000
  S   S5        1.0  0.14212760580506018  0.3306460717944068  0.24643524054385238  1.0000
  S   S6        1.0  0.46874209960673646  0.9395744825365488  0.24387383395760226  1.0000
  S   S7        1.0  0.5914519939970283  0.44968367390370234  0.7841290131731178  1.0000
  S   S8        1.0  0.08434871664523307  0.04227256671983182  0.7279517349175776  1.0000
data_image5
_chemical_formula_structural       H16S8
_chemical_formula_sum              "H16 S8"
_cell_length_a       8.83753075774048
_cell_length_b       8.83753075774048
_cell_length_c       8.83753075774048
_cell_angle_alpha    118.690318510586
_cell_angle_beta     118.69031851058598
_cell_angle_gamma    92.28380992055807

_space_group_name_H-M_alt    "P 1"
_space_group_IT_number       1

loop_
  _space_group_symop_operation_xyz
  'x, y, z'

loop_
  _atom_site_type_symbol
  _atom_site_label
  _atom_site_symmetry_multiplicity
  _atom_site_fract_x
  _atom_site_fract_y
  _atom_site_fract_z
  _atom_site_occupancy
  H   H1        1.0  0.8614431163796097  0.05979341821518025  0.7796401887940184  1.0000
  H   H2        1.0  0.37504126384403597  0.9334825984086367  0.9610052360469622  1.0000
  H   H3        1.0  0.38934915772341583  0.08997519091006256  0.21861448366933597  1.0000
  H   H4        1.0  0.2871564856169173  0.34529313492627267  0.7039995865713947  1.0000
  H   H5        1.0  0.11838744343165097  0.33856967940974386  0.16226639081856659  1.0000
  H   H6        1.0  0.5958277200728604  0.4463884776990151  0.9349830420667431  1.0000
  H   H7        1.0  0.20527723982460863  0.5274327916481201  0.7158881026378077  1.0000
  H   H8        1.0  0.30269074708290045  0.5956855240714346  0.4914243020858242  1.0000
  H   H9        1.0  0.8489916651488959  0.6747365177923114  0.07778455266998513  1.0000
  H   H10       1.0  0.10220056600905403  0.7883648670465957  0.4506487906734701  1.0000
  H   H11       1.0  0.6630248435915058  0.6316592226979033  0.8492289808665205  1.0000
  H   H12       1.0  0.8303264456545829  0.979763229329039  0.5180157955640577  1.0000
  H   H13       1.0  0.7824809563357291  0.8092346765322465  0.6847572366758681  1.0000
  H   H14       1.0  0.7455486641923337  0.26764390650440517  0.1010448515342917  1.0000
  H   H15       1.0  0.5872395815855674  0.17794183725300827  0.20138146900610662  1.0000
  H   H16       1.0  0.6375389190623808  0.5336259400013579  0.547919473078522  1.0000
  S   S1        1.0  0.0611052597331339  0.7276203934662945  0.25669917947298465  1.0000
  S   S2        1.0  0.7449133225090324  0.3110652766966465  0.2823566939855723  1.0000
  S   S3        1.0  0.33450948525239516  0.519307320147669  0.8779092627371029  1.0000
  S   S4        1.0  0.6212150786293392  0.6909471776775128  0.6251709967751956  1.0000
  S   S5        1.0  0.2782099083529615  0.4192843304390298  0.36791540131014006  1.0000
  S   S6        1.0  0.43479140174793235  0.9476898460487879  0.14120455005483748  1.0000
  S   S7        1.0  0.6243848552062059  0.42666631258672033  0.7950090498155322  1.0000
  S   S8        1.0  0.957714403132952  0.9937812365636023  0.7134384649816126  1.0000
data_image6
_chemical_formula_structural       H16S8
_chemical_formula_sum              "H16 S8"
_cell_length_a       8.83753075774048
_cell_length_b       8.83753075774048
_cell_length_c       8.83753075774048
_cell_angle_alpha    118.690318510586
_cell_angle_beta     118.69031851058598
_cell_angle_gamma    92.28380992055807

_space_group_name_H-M_alt    "P 1"
_space_group_IT_number       1

loop_
  _space_group_symop_operation_xyz
  'x, y, z'

loop_
  _atom_site_type_symbol
  _atom_site_label
  _atom_site_symmetry_multiplicity
  _atom_site_fract_x
  _atom_site_fract_y
  _atom_site_fract_z
  _atom_site_occupancy
  H   H1        1.0  0.865274991012056  0.8733717593416462  0.667085218516024  1.0000
  H   H2        1.0  0.3518347227886428  0.09183685256637553  0.18838553921571255  1.0000
  H   H3        1.0  0.23137087415732802  0.9843761183020937  0.07057986284597793  1.0000
  H   H4        1.0  0.4329261661762156  0.714012126204459  0.9759720234758076  1.0000
  H   H5        1.0  0.1805433532273939  0.27341027492673975  0.40236705241897847  1.0000
  H   H6        1.0  0.75218287103515  0.19011651805399674  0.687438579472948  1.0000
  H   H7        1.0  0.1723419698530503  0.5101076621992543  0.6072653938454406  1.0000
  H   H8        1.0  0.3393155857536671  0.27166468355619583  0.3515734344022182  1.0000
  H   H9        1.0  0.21210885622926853  0.9643348063704396  0.595064224778733  1.0000
  H   H10       1.0  0.125482384098061  0.8283074902731742  0.30396835516566933  1.0000
  H   H11       1.0  0.5352390951689155  0.22823822838989088  0.6957168920777792  1.0000
  H   H12       1.0  0.9403558891598014  0.12589943812794613  0.6461313710165489  1.0000
  H   H13       1.0  0.7918021130731268  0.7238314117913511  0.9116507149942338  1.0000
  H   H14       1.0  0.6331150345834113  0.338403676333561  0.17116034120088397  1.0000
  H   H15       1.0  0.7408660613324489  0.48057796451565293  0.42022795670333  1.0000
  H   H16       1.0  0.6955437333188025  0.8624076437431228  0.8433432268079898  1.0000
  S   S1        1.0  0.04850494589110019  0.8247287171220754  0.39557457670873086  1.0000
  S   S2        1.0  0.7641592360768975  0.3129240233863952  0.3070074703026997  1.0000
  S   S3        1.0  0.26616133859468694  0.5717735159068134  0.8122493493981228  1.0000
  S   S4        1.0  0.7139187357161315  0.7077880403125513  0.7249467657896842  1.0000
  S   S5        1.0  0.17642765370989746  0.3062501404899571  0.2794068295488594  1.0000
  S   S6        1.0  0.35297571992079596  0.9715626002492318  0.016878161928312763  1.0000
  S   S7        1.0  0.699701537531084  0.32877614207404454  0.7731933561498141  1.0000
  S   S8        1.0  0.014043097470223555  0.0006562844534567791  0.7117306869931086  1.0000
data_image7
_chemical_formula_structural       H16S8
_chemical_formula_sum              "H16 S8"
_cell_length_a       8.83753075774048
_cell_length_b       8.83753075774048
_cell_length_c       8.83753075774048
_cell_angle_alpha    118.690318510586
_cell_angle_beta     118.69031851058598
_cell_angle_gamma    92.28380992055807

_space_group_name_H-M_alt    "P 1"
_space_group_IT_number       1

loop_
  _space_group_symop_operation_xyz
  'x, y, z'

loop_
  _atom_site_type_symbol
  _atom_site_label
  _atom_site_symmetry_multiplicity
  _atom_site_fract_x
  _atom_site_fract_y
  _atom_site_fract_z
  _atom_site_occupancy
  H   H1        1.0  0.48076926704874734  0.9329827326182554  0.008861825736645068  1.0000
  H   H2        1.0  0.30899455835086653  0.1431365443616197  0.8606838904211753  1.0000
  H   H3        1.0  0.27637042573961407  0.21850543626835045  0.5622952062170673  1.0000
  H   H4        1.0  0.2855446652413106  0.11588032486134381  0.5324599715729575  1.0000
  H   H5        1.0  0.17575837875151934  0.18105725918758997  0.13767009936972718  1.0000
  H   H6        1.0  0.5757314792424578  0.08740146669645203  0.4554114269102873  1.0000
  H   H7        1.0  0.2087245091826001  0.4795657013873613  0.6168732916766603  1.0000
  H   H8        1.0  0.955457081063688  0.15060014389270474  0.044936113127311925  1.0000
  H   H9        1.0  0.24488442374658542  0.7625664330199585  0.35381406847734154  1.0000
  H   H10       1.0  0.035094502563074004  0.8104210692572984  0.1902342997179134  1.0000
  H   H11       1.0  0.8583031279981012  0.17965627605996365  0.8333589636663887  1.0000
  H   H12       1.0  0.875627613403223  0.24119017983293278  0.6412735787124073  1.0000
  H   H13       1.0  0.7575216946741107  0.8756444527965239  0.8255390879614622  1.0000
  H   H14       1.0  0.7236423959248908  0.3231979020621982  0.44437764738464536  1.0000
  H   H15       1.0  0.7297111960272266  0.43687832593178744  0.28707379947125017  1.0000
  H   H16       1.0  0.5340488969597986  0.6097522745789881  0.691985350442743  1.0000
  S   S1        1.0  0.10160921910771141  0.8357243242940383  0.38741991293382416  1.0000
  S   S2        1.0  0.7869614183187226  0.32761395001678356  0.3510229641027086  1.0000
  S   S3        1.0  0.23090065500693777  0.5018285355589993  0.7957828375195949  1.0000
  S   S4        1.0  0.7591636416480709  0.7805077843497011  0.9361436150523601  1.0000
  S   S5        1.0  0.10408154407693873  0.2781634230697682  0.23955501767977874  1.0000
  S   S6        1.0  0.41562262900014946  0.06603056032187826  0.9731249117175086  1.0000
  S   S7        1.0  0.6535159121745749  0.1210729356890239  0.6550476817599172  1.0000
  S   S8        1.0  0.9935202639680202  0.17613429957656512  0.7521688432735136  1.0000
data_image8
_chemical_formula_structural       H16S8
_chemical_formula_sum              "H16 S8"
_cell_length_a       8.83753075774048
_cell_length_b       8.83753075774048
_cell_length_c       8.83753075774048
_cell_angle_alpha    118.690318510586
_cell_angle_beta     118.69031851058598
_cell_angle_gamma    92.28380992055807

_space_group_name_H-M_alt    "P 1"
_space_group_IT_number       1

loop_
  _space_group_symop_operation_xyz
  'x, y, z'

loop_
  _atom_site_type_symbol
  _atom_site_label
  _atom_site_symmetry_multiplicity
  _atom_site_fract_x
  _atom_site_fract_y
  _atom_site_fract_z
  _atom_site_occupancy
  H   H1        1.0  0.25869146556395267  0.0031180275104454314  0.8816311784664027  1.0000
  H   H2        1.0  0.4430307731226634  0.15453636342473098  0.10120925167620552  1.0000
  H   H3        1.0  0.44257991514659584  0.9275911593501888  0.27269731492996707  1.0000
  H   H4        1.0  0.43573913998850583  0.9215213741969758  0.17742769006672587  1.0000
  H   H5        1.0  0.02982200905587362  0.31948464930795506  0.20182283183825026  1.0000
  H   H6        1.0  0.6539407497469489  0.7998751188895824  0.34768814117353525  1.0000
  H   H7        1.0  0.18742615796089634  0.4420037218669304  0.7285842322598869  1.0000
  H   H8        1.0  0.9860003134102744  0.11315660934599069  0.9851668872035884  1.0000
  H   H9        1.0  0.04721504031225334  0.6607809805843246  0.07675534921451822  1.0000
  H   H10       1.0  0.9256846837537689  0.583136726440306  0.2162914057967369  1.0000
  H   H11       1.0  0.8375229731285647  0.14380466355431606  0.48078584176435935  1.0000
  H   H12       1.0  0.9498281088142305  0.08564318210203936  0.6990449841394222  1.0000
  H   H13       1.0  0.8747048239190273  0.7322777961816979  0.9920547742834157  1.0000
  H   H14       1.0  0.7179138147042424  0.6304923870222991  0.41028317843553747  1.0000
  H   H15       1.0  0.8489704290595443  0.5277980281834008  0.5996277679610422  1.0000
  H   H16       1.0  0.8222675774629806  0.9582841172568105  0.9964209716718639  1.0000
  S   S1        1.0  0.018436858732931483  0.7201467638353469  0.2449660275237611  1.0000
  S   S2        1.0  0.8946644746297153  0.5791188902939157  0.4973138841281518  1.0000
  S   S3        1.0  0.18045511094479944  0.4544489169587783  0.8811465002848108  1.0000
  S   S4        1.0  0.817301119607275  0.8693687106626079  0.10697338534430156  1.0000
  S   S5        1.0  0.19193328259913908  0.2760945551226854  0.27038437030887036  1.0000
  S   S6        1.0  0.396194593610578  0.09432090797950199  0.8823052714416748  1.0000
  S   S7        1.0  0.6388121173619516  0.8807039237454999  0.532662758754429  1.0000
  S   S8        1.0  0.8960082784931634  0.23455234718324292  0.6897044086213118  1.0000
data_image9
_chemical_formula_structural       H16S8
_chemical_formula_sum              "H16 S8"
_cell_length_a       8.83753075774048
_cell_length_b       8.83753075774048
_cell_length_c       8.83753075774048
_cell_angle_alpha    118.690318510586
_cell_angle_beta     118.69031851058598
_cell_angle_gamma    92.28380992055807

_space_group_name_H-M_alt    "P 1"
_space_group_IT_number       1

loop_
  _space_group_symop_operation_xyz
  'x, y, z'

loop_
  _atom_site_type_symbol
  _atom_site_label
  _atom_site_symmetry_multiplicity
  _atom_site_fract_x
  _atom_site_fract_y
  _atom_site_fract_z
  _atom_site_occupancy
  H   H1        1.0  0.6453878931934186  0.17656768899992903  0.8770555083027602  1.0000
  H   H2        1.0  0.7239077792430751  0.22825570740965628  0.1267102370455177  1.0000
  H   H3        1.0  0.5948897848217313  0.24967586330647315  0.4843239537629749  1.0000
  H   H4        1.0  0.6643335143600528  0.27568577513735004  0.624765336127124  1.0000
  H   H5        1.0  0.2861005958669727  0.30637390375749124  0.151095570999792  1.0000
  H   H6        1.0  0.46882929734021134  0.8352373382596611  0.6236761548538288  1.0000
  H   H7        1.0  0.27398292527966567  0.5957385465122336  0.026555634795455862  1.0000
  H   H8        1.0  0.06646827840816662  0.14580876951737434  0.2078718711025913  1.0000
  H   H9        1.0  0.06649374105123573  0.4353523380042451  0.15688297906832527  1.0000
  H   H10       1.0  0.03957024382655161  0.6325251663280713  0.3156720042308834  1.0000
  H   H11       1.0  0.052951700039499006  0.15318845486288926  0.678902784951828  1.0000
  H   H12       1.0  0.6463353915929695  0.9420482683364574  0.5883809523591782  1.0000
  H   H13       1.0  0.8625114612234829  0.011009340463883133  0.27426502907708983  1.0000
  H   H14       1.0  0.6989587925226212  0.640411935331263  0.39093663023942227  1.0000
  H   H15       1.0  0.8945884822786391  0.4976316377016952  0.4023601284380023  1.0000
  H   H16       1.0  0.6389627131542587  0.9803591925628227  0.07566163595515474  1.0000
  S   S1        1.0  0.0394405497429098  0.623889574298212  0.1306937358271179  1.0000
  S   S2        1.0  0.828179369617872  0.5803730622928368  0.5104083994188979  1.0000
  S   S3        1.0  0.19703663675883493  0.4203381006350049  0.961288960680347  1.0000
  S   S4        1.0  0.8033103151973452  0.9786550172408881  0.08679567529627419  1.0000
  S   S5        1.0  0.2002271651412175  0.3125266349901823  0.26302145211798883  1.0000
  S   S6        1.0  0.5530320647079773  0.19614305644465513  0.9641771424959826  1.0000
  S   S7        1.0  0.4731414430627361  0.7687889655109875  0.44856696409605035  1.0000
  S   S8        1.0  0.9084389623565678  0.20132572023695716  0.6865959928770715  1.0000
data_image10
_chemical_formula_structural       H16S8
_chemical_formula_sum              "H16 S8"
_cell_length_a       8.83753075774048
_cell_length_b       8.83753075774048
_cell_length_c       8.83753075774048
_cell_angle_alpha    118.690318510586
_cell_angle_beta     118.69031851058598
_cell_angle_gamma    92.28380992055807

_space_group_name_H-M_alt    "P 1"
_space_group_IT_number       1

loop_
  _space_group_symop_operation_xyz
  'x, y, z'

loop_
  _atom_site_type_symbol
  _atom_site_label
  _atom_site_symmetry_multiplicity
  _atom_site_fract_x
  _atom_site_fract_y
  _atom_site_fract_z
  _atom_site_occupancy
  H   H1        1.0  0.04589154856075983  0.2957907058082361  0.1164341747056703  1.0000
  H   H2        1.0  0.6089890869904034  0.1589632179604079  0.8327073973088613  1.0000
  H   H3        1.0  0.0029437194134632277  0.23211900635907917  0.23458555601552222  1.0000
  H   H4        1.0  0.9946250594803581  0.823787590452643  0.5077147229867949  1.0000
  H   H5        1.0  0.9693646419916346  0.009436045941935778  0.02190967728478347  1.0000
  H   H6        1.0  0.12770500251046993  0.839212170745698  0.602836861342513  1.0000
  H   H7        1.0  0.20221399064681125  0.5263521277413442  0.8244694442800201  1.0000
  H   H8        1.0  0.11130894554293608  0.9947528604144743  0.1775501172163562  1.0000
  H   H9        1.0  0.9966997775367051  0.5522839231670522  0.10352554624694311  1.0000
  H   H10       1.0  0.2789231409308359  0.36310654572921774  0.8528795956926951  1.0000
  H   H11       1.0  0.06363288925765742  0.2684292658018138  0.5831512901060608  1.0000
  H   H12       1.0  0.6523430823303316  0.849737955410383  0.61787922808262  1.0000
  H   H13       1.0  0.5462902993001485  0.8816100404347601  0.06679101611114113  1.0000
  H   H14       1.0  0.58880262134978  0.5169257332214263  0.4298527820567035  1.0000
  H   H15       1.0  0.9429543801892867  0.5470080036710344  0.48603327813977976  1.0000
  H   H16       1.0  0.8197843846551748  0.9030488938484681  0.15298921691739276  1.0000
  S   S1        1.0  0.032175567217040325  0.712674874527182  0.2768116141445583  1.0000
  S   S2        1.0  0.8959545942151207  0.5735541564808511  0.6026362363174954  1.0000
  S   S3        1.0  0.13225353113564492  0.4516820287926381  0.9012842349921593  1.0000
  S   S4        1.0  0.6783961747031432  0.8891201627100302  0.9813467373301263  1.0000
  S   S5        1.0  0.14782584119661432  0.21890180768877715  0.2200171525030401  1.0000
  S   S6        1.0  0.6747681244618533  0.3187945100146301  0.005148978920504923  1.0000
  S   S7        1.0  0.5130556156472915  0.7095502285402946  0.4405274740584734  1.0000
  S   S8        1.0  0.947962166961656  0.1900415157706712  0.6047993463000464  1.0000
data_image11
_chemical_formula_structural       H16S8
_chemical_formula_sum              "H16 S8"
_cell_length_a       8.83753075774048
_cell_length_b       8.83753075774048
_cell_length_c       8.83753075774048
_cell_angle_alpha    118.690318510586
_cell_angle_beta     118.69031851058598
_cell_angle_gamma    92.28380992055807

_space_group_name_H-M_alt    "P 1"
_space_group_IT_number       1

loop_
  _space_group_symop_operation_xyz
  'x, y, z'

loop_
  _atom_site_type_symbol
  _atom_site_label
  _atom_site_symmetry_multiplicity
  _atom_site_fract_x
  _atom_site_fract_y
  _atom_site_fract_z
  _atom_site_occupancy
  H   H1        1.0  0.14677344768564615  0.46085945398204853  0.13243608212365832  1.0000
  H   H2        1.0  0.5693443333576367  0.37385477076830953  0.9109235091576731  1.0000
  H   H3        1.0  0.9673228392768152  0.30643298781865796  0.21085076609498488  1.0000
  H   H4        1.0  0.4527798795968745  0.8919468365499084  0.9341834343915987  1.0000
  H   H5        1.0  0.3460299270039531  0.6751774752602284  0.33193481025904203  1.0000
  H   H6        1.0  0.13924085076060133  0.9466099879955236  0.9668256636640264  1.0000
  H   H7        1.0  0.5603307933747519  0.022000690813165736  0.02490591280320964  1.0000
  H   H8        1.0  0.8714931917469012  0.7156036985888319  0.5545247638038947  1.0000
  H   H9        1.0  0.10881922001141749  0.7472438029356696  0.48669617009870547  1.0000
  H   H10       1.0  0.003187731991235787  0.2748798352473145  0.5863381145204907  1.0000
  H   H11       1.0  0.9222450183495828  0.13200575371151788  0.6678919953895723  1.0000
  H   H12       1.0  0.580222361650075  0.5308368212730935  0.2280810950836782  1.0000
  H   H13       1.0  0.7851884371262962  0.6520322344191709  0.836332960062816  1.0000
  H   H14       1.0  0.1577915496928688  0.8109001385227435  0.8650219581431683  1.0000
  H   H15       1.0  0.9254809043868861  0.5299619210621789  0.8982612490266241  1.0000
  H   H16       1.0  0.51626890841808  0.6719832636872202  0.7141067747575571  1.0000
  S   S1        1.0  0.9171914916361972  0.7109703131464945  0.3307989714994315  1.0000
  S   S2        1.0  0.025537542463859975  0.6555886797854666  0.7011615889678602  1.0000
  S   S3        1.0  0.06628361398135992  0.5083047611921924  0.9831211481399361  1.0000
  S   S4        1.0  0.6942608205009935  0.7574845298706805  0.9322813062257863  1.0000
  S   S5        1.0  0.06420321221339495  0.18942748639907636  0.2195710836556745  1.0000
  S   S6        1.0  0.7900886045049722  0.4488954021413263  0.03295134783857117  1.0000
  S   S7        1.0  0.6041116697356798  0.6597764936494308  0.3888656193508684  1.0000
  S   S8        1.0  0.8774286863218246  0.0934318870868569  0.4813033648606853  1.0000
data_image12
_chemical_formula_structural       H16S8
_chemical_formula_sum              "H16 S8"
_cell_length_a       8.83753075774048
_cell_length_b       8.83753075774048
_cell_length_c       8.83753075774048
_cell_angle_alpha    118.690318510586
_cell_angle_beta     118.69031851058598
_cell_angle_gamma    92.28380992055807

_space_group_name_H-M_alt    "P 1"
_space_group_IT_number       1

loop_
  _space_group_symop_operation_xyz
  'x, y, z'

loop_
  _atom_site_type_symbol
  _atom_site_label
  _atom_site_symmetry_multiplicity
  _atom_site_fract_x
  _atom_site_fract_y
  _atom_site_fract_z
  _atom_site_occupancy
  H   H1        1.0  0.2676584465551741  0.5007299407205892  0.7060984517314637  1.0000
  H   H2        1.0  0.9735983434639195  0.4031018012936016  0.7662446338427458  1.0000
  H   H3        1.0  0.007706147616659109  0.39930689416604537  0.15877832983190387  1.0000
  H   H4        1.0  0.3588591940836494  0.11881155553285083  0.5868605320857228  1.0000
  H   H5        1.0  0.8106901981786603  0.49965558062982307  0.2916679643369804  1.0000
  H   H6        1.0  0.8628083874195216  0.6585806341534344  0.7351002495723318  1.0000
  H   H7        1.0  0.7164290424093025  0.04160643080595605  0.17028112542646312  1.0000
  H   H8        1.0  0.28184707889056426  0.8956672775759742  0.3503867513743444  1.0000
  H   H9        1.0  0.4676968510266306  0.6661374635386892  0.5669012647949785  1.0000
  H   H10       1.0  0.7800453819357802  0.15231408898094045  0.7556220913135867  1.0000
  H   H11       1.0  0.33512986843197723  0.21745692539388983  0.40405071136433435  1.0000
  H   H12       1.0  0.9341993219287232  0.3770311218867759  0.5324911244413002  1.0000
  H   H13       1.0  0.8159595073893904  0.8079160530301763  0.17232829945172767  1.0000
  H   H14       1.0  0.732583070504603  0.16140982525298142  0.8646535142269514  1.0000
  H   H15       1.0  0.3823221581218448  0.3243908815212926  0.8693542142475934  1.0000
  H   H16       1.0  0.7269915413062904  0.7078992847095265  0.16113230617844465  1.0000
  S   S1        1.0  0.8432164179843049  0.2854882056907475  0.37094816663155594  1.0000
  S   S2        1.0  0.0007510712464267044  0.07398609061099393  0.3293473363940791  1.0000
  S   S3        1.0  0.7795189713624495  0.17162295762818758  0.45110641190207446  1.0000
  S   S4        1.0  0.7022684605949507  0.00861652822754877  0.41920609487776517  1.0000
  S   S5        1.0  0.526572603416728  0.5318632029158279  0.6500374083994016  1.0000
  S   S6        1.0  0.5123615834408497  0.9086605494442566  0.9102785792172767  1.0000
  S   S7        1.0  0.012161040718845939  0.19423279820769596  0.340368501421501  1.0000
  S   S8        1.0  0.013098843561443196  0.2890572469667747  0.7872780252883018  1.0000
data_image13
_chemical_formula_structural       H16S8
_chemical_formula_sum              "H16 S8"
_cell_length_a       8.83753075774048
_cell_length_b       8.83753075774048
_cell_length_c       8.83753075774048
_cell_angle_alpha    118.690318510586
_cell_angle_beta     118.69031851058598
_cell_angle_gamma    92.28380992055807

_space_group_name_H-M_alt    "P 1"
_space_group_IT_number       1

loop_
  _space_group_symop_operation_xyz
  'x, y, z'

loop_
  _atom_site_type_symbol
  _atom_site_label
  _atom_site_symmetry_multiplicity
  _atom_site_fract_x
  _atom_site_fract_y
  _atom_site_fract_z
  _atom_site_occupancy
  H   H1        1.0  0.6798083865194258  0.3379713911108553  0.4825296046174117  1.0000
  H   H2        1.0  0.6707049431897758  0.3177517411459121  0.8728153595584445  1.0000
  H   H3        1.0  0.8419864538209367  0.20483946465265035  0.02908230538105272  1.0000
  H   H4        1.0  0.719292638517345  0.9138167340951782  0.4217475542475313  1.0000
  H   H5        1.0  0.9144535636351065  0.05334331348399246  0.35005834445064465  1.0000
  H   H6        1.0  0.39748761930655974  0.9513918577693907  0.1433851020328092  1.0000
  H   H7        1.0  0.9083150445803767  0.7280475766820018  0.3874200741556706  1.0000
  H   H8        1.0  0.7925560798448714  0.17118212571949698  0.7894245435199991  1.0000
  H   H9        1.0  0.8549357035917637  0.5821598115799134  0.45877477002704836  1.0000
  H   H10       1.0  0.8931353187763307  0.39306054607777696  0.7873319178270322  1.0000
  H   H11       1.0  0.7992507332237437  0.3105706613896473  0.7701127506197736  1.0000
  H   H12       1.0  0.6465843555604351  0.9316770636255569  0.7607559788013987  1.0000
  H   H13       1.0  0.7461591185674479  0.3213886815610749  0.550318591274845  1.0000
  H   H14       1.0  0.9542661822633818  0.022988750657532364  0.5772144637885503  1.0000
  H   H15       1.0  0.6091904303684714  0.4624765063836094  0.7655762916911044  1.0000
  H   H16       1.0  0.01370358807980665  0.13793739235552493  0.9509295819334511  1.0000
  S   S1        1.0  0.05699599211413897  0.542975303155913  0.556360171690585  1.0000
  S   S2        1.0  0.3889807174084581  0.028509292325793467  0.02213189382382552  1.0000
  S   S3        1.0  0.7809941133896245  0.47710001090035803  0.16810263228694566  1.0000
  S   S4        1.0  0.019205219363357173  0.4478242763434537  0.4563342235269374  1.0000
  S   S5        1.0  0.40758871179605194  0.24818429917650064  0.8517601356943487  1.0000
  S   S6        1.0  0.41815537389084056  0.4940259707037349  0.8628775925160426  1.0000
  S   S7        1.0  0.2472993251121096  0.45742065127299725  0.753891192808311  1.0000
  S   S8        1.0  0.9394350625834704  0.19232089900015126  0.9197519351437222  1.0000
data_image14
_chemical_formula_structural       H16S8
_chemical_formula_sum              "H16 S8"
_cell_length_a       8.83753075774048
_cell_length_b       8.83753075774048
_cell_length_c       8.83753075774048
_cell_angle_alpha    118.690318510586
_cell_angle_beta     118.69031851058598
_cell_angle_gamma    92.28380992055807

_space_group_name_H-M_alt    "P 1"
_space_group_IT_number       1

loop_
  _space_group_symop_operation_xyz
  'x, y, z'

loop_
  _atom_site_type_symbol
  _atom_site_label
  _atom_site_symmetry_multiplicity
  _atom_site_fract_x
  _atom_site_fract_y
  _atom_site_fract_z
  _atom_site_occupancy
  H   H1        1.0  0.9062799937237287  0.07939776500643347  0.7449431621498661  1.0000
  H   H2        1.0  0.8840972472025896  0.1457227782229893  0.768450372517691  1.0000
  H   H3        1.0  0.02859671103351502  0.38517684918406303  0.29767087528307457  1.0000
  H   H4        1.0  0.000756657071178779  0.6740268436201404  0.14556197648016678  1.0000
  H   H5        1.0  0.5396906005044002  0.1754828280681977  0.48181154497433454  1.0000
  H   H6        1.0  0.022571477725250588  0.6360622648035132  0.9040261954824018  1.0000
  H   H7        1.0  0.9124828253407031  0.3945910072652623  0.7220053009514231  1.0000
  H   H8        1.0  0.2358916578195931  0.902811937732622  0.9391941253343248  1.0000
  H   H9        1.0  0.3346767449784238  0.8862365604072693  0.9679870925228897  1.0000
  H   H10       1.0  0.5379889899340924  0.9510781438366394  0.7541655736786197  1.0000
  H   H11       1.0  0.39793586182349827  0.05911069291687454  0.6936690131115029  1.0000
  H   H12       1.0  0.4276200972162769  0.3605377756066446  0.04107476829085499  1.0000
  H   H13       1.0  0.35603978348081  0.3895438540785108  0.25748375612602104  1.0000
  H   H14       1.0  0.2478262735530734  0.21186152781592682  0.9276103799929842  1.0000
  H   H15       1.0  0.4982850221749686  0.07216661646089051  0.6908371395111317  1.0000
  H   H16       1.0  0.15218487389938673  0.40375860437052324  0.26144926658889744  1.0000
  S   S1        1.0  0.585784053205316  0.9559035394808006  0.2323944051017861  1.0000
  S   S2        1.0  0.2367335213930346  0.21215502842915157  0.2584725137494388  1.0000
  S   S3        1.0  0.6942685421381611  0.7941961246738174  0.03603212297457503  1.0000
  S   S4        1.0  0.11430921146529727  0.8293894483067561  0.7002312695258297  1.0000
  S   S5        1.0  0.3650475873146206  0.6803868498827796  0.2713454349723179  1.0000
  S   S6        1.0  0.5760948679389912  0.691255268219038  0.9248912963466864  1.0000
  S   S7        1.0  0.7475431320340249  0.3524000632873481  0.40922360461200924  1.0000
  S   S8        1.0  0.19252689240965992  0.5245426829842472  0.01751859964861069  1.0000
data_image15
_chemical_formula_structural       H16S8
_chemical_formula_sum              "H16 S8"
_cell_length_a       8.83753075774048
_cell_length_b       8.83753075774048
_cell_length_c       8.83753075774048
_cell_angle_alpha    118.690318510586
_cell_angle_beta     118.69031851058598
_cell_angle_gamma    92.28380992055807

_space_group_name_H-M_alt    "P 1"
_space_group_IT_number       1

loop_
  _space_group_symop_operation_xyz
  'x, y, z'

loop_
  _atom_site_type_symbol
  _atom_site_label
  _atom_site_symmetry_multiplicity
  _atom_site_fract_x
  _atom_site_fract_y
  _atom_site_fract_z
  _atom_site_occupancy
  H   H1        1.0  0.8443576620193198  0.07802634776453488  0.8096858669887297  1.0000
  H   H2        1.0  0.4505564817955019  0.4052126443348243  0.28357839649834204  1.0000
  H   H3        1.0  0.15446179217269673  0.813466210529441  0.057705894021637505  1.0000
  H   H4        1.0  0.9494143618721864  0.7294334497814816  0.24972075408368255  1.0000
  H   H5        1.0  0.6658045233343728  0.5768175983976107  0.7527122453393531  1.0000
  H   H6        1.0  0.7852706376470451  0.4440285343953292  0.41072008208993793  1.0000
  H   H7        1.0  0.9361778104212135  0.6268367056618445  0.7231042697385419  1.0000
  H   H8        1.0  0.4732612535262888  0.9187902804260375  0.37343762205637177  1.0000
  H   H9        1.0  0.8650313157177152  0.9417523364099907  0.1129544545792669  1.0000
  H   H10       1.0  0.4652764149941504  0.1565542150492547  0.9606520997476764  1.0000
  H   H11       1.0  0.9946370626130374  0.4263518816960641  0.9357216830831021  1.0000
  H   H12       1.0  0.5716187107318547  0.29799949462903896  0.008867144977557473  1.0000
  H   H13       1.0  0.8424371997025446  0.26261635185801424  0.7438329152355436  1.0000
  H   H14       1.0  0.08911202556919307  0.904550671344623  0.9589157031150535  1.0000
  H   H15       1.0  0.7557988670669147  0.502123465295881  0.12562791857635602  1.0000
  H   H16       1.0  0.4858239505774691  0.22337525730836205  0.34116056200582534  1.0000
  S   S1        1.0  0.24808750736883667  0.20602220905493596  0.5239185555919903  1.0000
  S   S2        1.0  0.2966586216862197  0.5627792340128508  0.08181743207387626  1.0000
  S   S3        1.0  0.7466586468653986  0.5767581552627234  0.9443086872634012  1.0000
  S   S4        1.0  0.6028054235212039  0.4490380208590068  0.8353495443006977  1.0000
  S   S5        1.0  0.06368387339171022  0.2707571745850146  0.6737305493734311  1.0000
  S   S6        1.0  0.8207167868004035  0.4120038527162251  0.1343778996488254  1.0000
  S   S7        1.0  0.6851038977224562  0.25049760683998556  0.46824766656595784  1.0000
  S   S8        1.0  0.5174273460215773  0.5505243586119377  0.1587531098339241  1.0000
data_image16
_chemical_formula_structural       H16S8
_chemical_formula_sum              "H16 S8"
_cell_length_a       8.83753075774048
_cell_length_b       8.83753075774048
_cell_length_c       8.83753075774048
_cell_angle_alpha    118.690318510586
_cell_angle_beta     118.69031851058598
_cell_angle_gamma    92.28380992055807

_space_group_name_H-M_alt    "P 1"
_space_group_IT_number       1

loop_
  _space_group_symop_operation_xyz
  'x, y, z'

loop_
  _atom_site_type_symbol
  _atom_site_label
  _atom_site_symmetry_multiplicity
  _atom_site_fract_x
  _atom_site_fract_y
  _atom_site_fract_z
  _atom_site_occupancy
  H   H1        1.0  0.5002114666858688  0.5336284089135006  0.11766278406139463  1.0000
  H   H2        1.0  0.07292252469051164  0.41259351724147564  0.8682600895117503  1.0000
  H   H3        1.0  0.17417666791061492  0.41505770499497885  0.8652019939945603  1.0000
  H   H4        1.0  0.11752510737278499  0.9940170814861631  0.7003169360141328  1.0000
  H   H5        1.0  0.3353176834934857  0.4457100178406108  0.2382959782407852  1.0000
  H   H6        1.0  0.4464393146263319  0.3480955165141495  0.5425466440246964  1.0000
  H   H7        1.0  0.9044138963799924  0.24994885973865166  0.05055054440163076  1.0000
  H   H8        1.0  0.8226385837988346  0.8909019662678475  0.19365453649879782  1.0000
  H   H9        1.0  0.08969980830897839  0.19394194651249563  0.932416663492404  1.0000
  H   H10       1.0  0.2794671484734863  0.6078275507461512  0.9077401201648172  1.0000
  H   H11       1.0  0.7967491057061125  0.9328116414212673  0.5439991774619557  1.0000
  H   H12       1.0  0.6842920466442592  0.389955778606236  0.7858906346082222  1.0000
  H   H13       1.0  0.6676409398714895  0.5318947851119447  0.06517930515110493  1.0000
  H   H14       1.0  0.4870011685998179  0.7040805096039549  0.7278701600152999  1.0000
  H   H15       1.0  0.19253365538315848  0.1732688590127509  0.19436907256022096  1.0000
  H   H16       1.0  0.15156954230042174  0.5156901402224321  0.5252944443200249  1.0000
  S   S1        1.0  0.5527393682186812  0.10070520358203794  0.9815101370559205  1.0000
  S   S2        1.0  0.7362296594801592  0.4138597807213955  0.35356781556038186  1.0000
  S   S3        1.0  0.3953106749104336  0.8693619574833065  0.5814116951369215  1.0000
  S   S4        1.0  0.8890371657471405  0.6875520530156791  0.9206948726496194  1.0000
  S   S5        1.0  0.696663415452349  0.3823672005091794  0.6891502738290001  1.0000
  S   S6        1.0  0.376550316970679  0.649989667540467  0.45340718477018527  1.0000
  S   S7        1.0  0.5987092964096519  0.0482494818734267  0.23136703427189786  1.0000
  S   S8        1.0  0.023484797609853558  0.8680683910961307  0.24988897766161244  1.0000
data_image17
_chemical_formula_structural       H16S8
_chemical_formula_sum              "H16 S8"
_cell_length_a       8.83753075774048
_cell_length_b       8.83753075774048
_cell_length_c       8.83753075774048
_cell_angle_alpha    118.690318510586
_cell_angle_beta     118.69031851058598
_cell_angle_gamma    92.28380992055807

_space_group_name_H-M_alt    "P 1"
_space_group_IT_number       1

loop_
  _space_group_symop_operation_xyz
  'x, y, z'

loop_
  _atom_site_type_symbol
  _atom_site_label
  _atom_site_symmetry_multiplicity
  _atom_site_fract_x
  _atom_site_fract_y
  _atom_site_fract_z
  _atom_site_occupancy
  H   H1        1.0  0.2516124558169395  0.4410937991924584  0.8484069922706112  1.0000
  H   H2        1.0  0.16139934252714738  0.08943253936013207  0.9562519998871721  1.0000
  H   H3        1.0  0.05161480423703324  0.20283581850026167  0.9073315029054356  1.0000
  H   H4        1.0  0.8600598257544334  0.5147126511274109  0.30134489733245573  1.0000
  H   H5        1.0  0.7045797044265782  0.1720890091964975  0.9928702570250607  1.0000
  H   H6        1.0  0.48832499690615805  0.7948849364474881  0.7439012809372798  1.0000
  H   H7        1.0  0.7151852723909542  0.43840130933676846  0.8533893906715093  1.0000
  H   H8        1.0  0.5479466854631028  0.36146606819238514  0.8736120370012941  1.0000
  H   H9        1.0  0.2671791731754638  0.7187051660021098  0.982019756018417  1.0000
  H   H10       1.0  0.8907152622705325  0.9992527542635798  0.9667953082825989  1.0000
  H   H11       1.0  0.6882633283530595  0.19345006664298126  0.7570268733543344  1.0000
  H   H12       1.0  0.4447246820782311  0.9993840674869716  0.6873296210542321  1.0000
  H   H13       1.0  0.9253101392896497  0.6027779569340055  0.4567325760872336  1.0000
  H   H14       1.0  0.07705901248846203  0.552069439436309  0.40597747557330877  1.0000
  H   H15       1.0  0.9118813512613997  0.26467472803778946  0.4885430727736093  1.0000
  H   H16       1.0  0.21788565325550735  0.07412860475596972  0.3499198955541942  1.0000
  S   S1        1.0  0.2498459920498135  0.7575509238158702  0.5496300324302865  1.0000
  S   S2        1.0  0.20867957345035393  0.14184585115071968  0.1962088195286924  1.0000
  S   S3        1.0  0.9521235521533526  0.7336045872170871  0.6615303314029006  1.0000
  S   S4        1.0  0.14463358421926387  0.6679615007597022  0.9321016897156369  1.0000
  S   S5        1.0  0.08762247978302184  0.7463857228285633  0.055115940573159605  1.0000
  S   S6        1.0  0.6338066254147634  0.6465635634176579  0.9738562499514956  1.0000
  S   S7        1.0  0.7123265744048695  0.5203342362019612  0.026957416615914553  1.0000
  S   S8        1.0  0.8200626786929206  0.8420648309620447  0.8069760814832989  1.0000
data_image18
_chemical_formula_structural       H16S8
_chemical_formula_sum              "H16 S8"
_cell_length_a       8.83753075774048
_cell_length_b       8.83753075774048
_cell_length_c       8.83753075774048
_cell_angle_alpha    118.690318510586
_cell_angle_beta     118.69031851058598
_cell_angle_gamma    92.28380992055807

_space_group_name_H-M_alt    "P 1"
_space_group_IT_number       1

loop_
  _space_group_symop_operation_xyz
  'x, y, z'

loop_
  _atom_site_type_symbol
  _atom_site_label
  _atom_site_symmetry_multiplicity
  _atom_site_fract_x
  _atom_site_fract_y
  _atom_site_fract_z
  _atom_site_occupancy
  H   H1        1.0  0.1702762512722984  0.4699145623599179  0.5256672904361039  1.0000
  H   H2        1.0  0.7535172430798411  0.16987461285316385  0.08466700743883848  1.0000
  H   H3        1.0  0.5922572455165209  0.17236868233885616  0.18899983569281176  1.0000
  H   H4        1.0  0.7569644536852138  0.4102357005272097  0.7741789279025397  1.0000
  H   H5        1.0  0.35083149106503697  0.06389112852048129  0.20651831480063265  1.0000
  H   H6        1.0  0.946621066701482  0.6664846933708759  0.015792313090059906  1.0000
  H   H7        1.0  0.22294170640816446  0.3754530649166554  0.29317168542183936  1.0000
  H   H8        1.0  0.22526837391706067  0.5941132286097854  0.18626150293130195  1.0000
  H   H9        1.0  0.10281617703731172  0.3516823346653837  0.691796085680835  1.0000
  H   H10       1.0  0.989542624913156  0.5253985280869529  0.9045689585618675  1.0000
  H   H11       1.0  0.9344437413092237  0.7783628011602559  0.8097260153153911  1.0000
  H   H12       1.0  0.3206054234178737  0.9355026957928203  0.4932058436097577  1.0000
  H   H13       1.0  0.715500353522657  0.5037888688602834  0.06052667686890345  1.0000
  H   H14       1.0  0.27869377481874835  0.2324907686561346  0.10831536521436647  1.0000
  H   H15       1.0  0.9860234647421748  0.02210201387060806  0.06994300818769261  1.0000
  H   H16       1.0  0.13020257334574126  0.8480235695897136  0.3526608894462697  1.0000
  S   S1        1.0  0.35460546287868056  0.07831851139599166  0.8045006970414761  1.0000
  S   S2        1.0  0.11384045403974596  0.8149050152205746  0.47307698157965206  1.0000
  S   S3        1.0  0.33941201072593685  0.3946944887538848  0.25837198516819626  1.0000
  S   S4        1.0  0.6258064706489677  0.18506934761535376  0.9979762945440598  1.0000
  S   S5        1.0  0.08872644361690618  0.2578802751377225  0.608603858796414  1.0000
  S   S6        1.0  0.8122561670425057  0.6752149974927306  0.20851862714334857  1.0000
  S   S7        1.0  0.5661405537903192  0.9346241574276064  0.2814478135042009  1.0000
  S   S8        1.0  0.4907089289445139  0.2851543067390594  0.30776366893405793  1.0000
data_image19
_chemical_formula_structural       H16S8
_chemical_formula_sum              "H16 S8"
_cell_length_a       8.83753075774048
_cell_length_b       8.83753075774048
_cell_length_c       8.83753075774048
_cell_angle_alpha    118.690318510586
_cell_angle_beta     118.69031851058598
_cell_angle_gamma    92.28380992055807

_space_group_name_H-M_alt    "P 1"
_space_group_IT_number       1

loop_
  _space_group_symop_operation_xyz
  'x, y, z'

loop_
  _atom_site_type_symbol
  _atom_site_label
  _atom_site_symmetry_multiplicity
  _atom_site_fract_x
  _atom_site_fract_y
  _atom_site_fract_z
  _atom_site_occupancy
  H   H1        1.0  0.1358563028043136  0.11034532269695774  0.5908602538984269  1.0000
  H   H2        1.0  0.37955970503389835  0.4432097800890915  0.8715010741725564  1.0000
  H   H3        1.0  0.09427736417273991  0.6905255631427281  0.23020496126264334  1.0000
  H   H4        1.0  0.34890153949345404  0.04456402867799625  0.10551781785034109  1.0000
  H   H5        1.0  0.14031539270399662  0.5426353906514123  0.033657050793408416  1.0000
  H   H6        1.0  0.1602790744509548  0.14352669240906835  0.8585221697903762  1.0000
  H   H7        1.0  0.7398828348159441  0.6958200940862298  0.18927814858034253  1.0000
  H   H8        1.0  0.18919553266459843  0.8726270152837969  0.9035599985872977  1.0000
  H   H9        1.0  0.35084744180494454  0.027146061256644316  0.07599277427652851  1.0000
  H   H10       1.0  0.8561492904555053  0.339586075861007  0.6797815675381571  1.0000
  H   H11       1.0  0.5682657879515318  0.14421952118573245  0.09913660516031086  1.0000
  H   H12       1.0  0.8833797668339685  0.3629122907295823  0.020450749318115413  1.0000
  H   H13       1.0  0.5956280015743687  0.7879720924756839  0.09216982946963981  1.0000
  H   H14       1.0  0.9119832664728165  0.08545495057478547  0.34974391444120556  1.0000
  H   H15       1.0  0.9004591120319674  0.7650230264989659  0.4024256874108687  1.0000
  H   H16       1.0  0.18883580680994783  0.3479904210253153  0.3449801893730182  1.0000
  S   S1        1.0  0.38332319716209895  0.5329396476608963  0.7509771132827154  1.0000
  S   S2        1.0  0.08459261953248642  0.8534640871512238  0.21686186468286905  1.0000
  S   S3        1.0  0.6309113888637512  0.47721883840858936  0.6220694594958331  1.0000
  S   S4        1.0  0.726774786162423  0.8223398298141547  0.44929643638897687  1.0000
  S   S5        1.0  0.705081808991963  0.12961870979052037  0.01532608547131531  1.0000
  S   S6        1.0  0.6646505066310056  0.6012971784584806  0.40780600356083596  1.0000
  S   S7        1.0  0.6574022261793289  0.3969902959797764  0.7565068380645243  1.0000
  S   S8        1.0  0.9066576029799762  0.560908545357961  0.265162075360422  1.0000
data_image20
_chemical_formula_structural       H16S8
_chemical_formula_sum              "H16 S8"
_cell_length_a       8.83753075774048
_cell_length_b       8.83753075774048
_cell_length_c       8.83753075774048
_cell_angle_alpha    118.690318510586
_cell_angle_beta     118.69031851058598
_cell_angle_gamma    92.28380992055807

_space_group_name_H-M_alt    "P 1"
_space_group_IT_number       1

loop_
  _space_group_symop_operation_xyz
  'x, y, z'

loop_
  _atom_site_type_symbol
  _atom_site_label
  _atom_site_symmetry_multiplicity
  _atom_site_fract_x
  _atom_site_fract_y
  _atom_site_fract_z
  _atom_site_occupancy
  H   H1        1.0  0.7596206197049469  0.5975320799625479  0.9205500857206061  1.0000
  H   H2        1.0  0.8002185357036069  0.4002334933029488  0.4150198339484632  1.0000
  H   H3        1.0  0.1110101462691091  0.7741992472438142  0.2029461225029081  1.0000
  H   H4        1.0  0.8851387467584573  0.3581343605474103  0.11390340482466854  1.0000
  H   H5        1.0  0.9511119634189527  0.20202475314727053  0.568108091931208  1.0000
  H   H6        1.0  0.09750962787074968  0.5559049528237665  0.011207917326828465  1.0000
  H   H7        1.0  0.5720180554490071  0.8412369922734797  0.4911734138149768  1.0000
  H   H8        1.0  0.7149152555466571  0.5462220456101932  0.2528497219645942  1.0000
  H   H9        1.0  0.5765601122839143  0.45226417716185097  0.1959189890185371  1.0000
  H   H10       1.0  0.1658434955170378  0.1948539491277188  0.8560465204063803  1.0000
  H   H11       1.0  0.3080656165839173  0.9853030762606068  0.23086062342918012  1.0000
  H   H12       1.0  0.012355365906842053  0.006310393451713026  0.13062148389872164  1.0000
  H   H13       1.0  0.6883977796969702  0.11485421039105859  0.11285033033345826  1.0000
  H   H14       1.0  0.543325599457603  0.4473800449632108  0.2219619866227731  1.0000
  H   H15       1.0  0.8036350787588162  0.4554076838248875  0.8470861057285219  1.0000
  H   H16       1.0  0.1897862506157253  0.7872177025710698  0.21888106473488733  1.0000
  S   S1        1.0  0.27565438081182947  0.605047728142381  0.06654979498853208  1.0000
  S   S2        1.0  0.5721069428982446  0.8943004113461939  0.6641554655725486  1.0000
  S   S3        1.0  0.29839279548468767  0.7596827342185861  0.5231573521596147  1.0000
  S   S4        1.0  0.4620151426352095  0.6731785538722761  0.8803499212954193  1.0000
  S   S5        1.0  0.6340581231343094  0.3454439227934927  0.06504476722329855  1.0000
  S   S6        1.0  0.25693895872609573  0.01347702557222874  0.13174898203578778  1.0000
  S   S7        1.0  0.6808393105329742  0.010383319789980305  0.48059329003444873  1.0000
  S   S8        1.0  0.28899347649166884  0.032997869409882696  0.22759301315818448  1.0000
data_image21
_chemical_formula_structural       H16S8
_chemical_formula_sum              "H16 S8"
_cell_length_a       8.83753075774048
_cell_length_b       8.83753075774048
_cell_length_c       8.83753075774048
_cell_angle_alpha    118.690318510586
_cell_angle_beta     118.69031851058598
_cell_angle_gamma    92.28380992055807

_space_group_name_H-M_alt    "P 1"
_space_group_IT_number       1

loop_
  _space_group_symop_operation_xyz
  'x, y, z'

loop_
  _atom_site_type_symbol
  _atom_site_label
  _atom_site_symmetry_multiplicity
  _atom_site_fract_x
  _atom_site_fract_y
  _atom_site_fract_z
  _atom_site_occupancy
  H   H1        1.0  0.866299950517714  0.5921273871790618  0.4151088184444234  1.0000
  H   H2        1.0  0.5514538955176249  0.49845425473176874  0.2405369847547263  1.0000
  H   H3        1.0  0.7413723490899429  0.37728637852706015  0.7809445860330015  1.0000
  H   H4        1.0  0.0707158763834741  0.17319529136875644  0.6218579696433153  1.0000
  H   H5        1.0  0.02670263515028637  0.3022359432070516  0.7910655787854921  1.0000
  H   H6        1.0  0.478153165691765  0.8488934291526675  0.6468070649109166  1.0000
  H   H7        1.0  0.2558567917003529  0.18806187342852354  0.9838879113085568  1.0000
  H   H8        1.0  0.47995510261898744  0.1656472356407903  0.4435368080303306  1.0000
  H   H9        1.0  0.6723139608511701  0.1836099393767654  0.41087137907743454  1.0000
  H   H10       1.0  0.27297163871116936  0.5944060645997524  0.8979593036929145  1.0000
  H   H11       1.0  0.21862500306451693  0.0714757399255177  0.09744107496226206  1.0000
  H   H12       1.0  0.9200793716590852  0.28096078109228984  0.6039752775686793  1.0000
  H   H13       1.0  0.41012633286300115  0.650952480675187  0.7534142353979405  1.0000
  H   H14       1.0  0.7748724242555909  0.9117362222168595  0.79661574435886  1.0000
  H   H15       1.0  0.12737589990138076  0.29004984942730516  0.45630406227428466  1.0000
  H   H16       1.0  0.8804072237253422  0.37859681219561026  0.8899371249426622  1.0000
  S   S1        1.0  0.8821717269693181  0.4178268220057362  0.6830286711228837  1.0000
  S   S2        1.0  0.8077832391281845  0.6834972499855212  0.7377013565637753  1.0000
  S   S3        1.0  0.9872967630071798  0.3410857545568433  0.839407317675068  1.0000
  S   S4        1.0  0.9015173293300904  0.48311832116451114  0.9973920094198547  1.0000
  S   S5        1.0  0.6126753544667736  0.19671008590376005  0.46653043053811416  1.0000
  S   S6        1.0  0.30546328220953  0.2913477714905639  0.10342208594374824  1.0000
  S   S7        1.0  0.9390909220965113  0.68675969547985  0.7186393041338306  1.0000
  S   S8        1.0  0.8815772150919656  0.614766057835368  0.2394903712265659  1.0000
data_image22
_chemical_formula_structural       H16S8
_chemical_formula_sum              "H16 S8"
_cell_length_a       8.83753075774048
_cell_length_b       8.83753075774048
_cell_length_c       8.83753075774048
_cell_angle_alpha    118.690318510586
_cell_angle_beta     118.69031851058598
_cell_angle_gamma    92.28380992055807

_space_group_name_H-M_alt    "P 1"
_space_group_IT_number       1

loop_
  _space_group_symop_operation_xyz
  'x, y, z'

loop_
  _atom_site_type_symbol
  _atom_site_label
  _atom_site_symmetry_multiplicity
  _atom_site_fract_x
  _atom_site_fract_y
  _atom_site_fract_z
  _atom_site_occupancy
  H   H1        1.0  0.5185969265876338  0.6522552876267582  0.42059109325055033  1.0000
  H   H2        1.0  0.7036151321372017  0.7319458953716094  0.43125712568871677  1.0000
  H   H3        1.0  0.49256398231955245  0.6000177402165718  0.03695827163755894  1.0000
  H   H4        1.0  0.08160168898757547  0.18995476758573204  0.5280197713873349  1.0000
  H   H5        1.0  0.7776889356173342  0.7364317735482473  0.18110034277196974  1.0000
  H   H6        1.0  0.4212754867912736  0.9287392209444079  0.6832875809195684  1.0000
  H   H7        1.0  0.2484710384014761  0.38910384103655815  0.337336640805006  1.0000
  H   H8        1.0  0.2605616623623064  0.04979917814489454  0.7719273927505128  1.0000
  H   H9        1.0  0.24133311840705574  0.3313188881147653  0.7826312801335007  1.0000
  H   H10       1.0  0.7723747901618481  0.3590685613453388  0.8089403538033366  1.0000
  H   H11       1.0  0.5944727347232401  0.4611600349016953  0.26749523874605075  1.0000
  H   H12       1.0  0.00830200919881463  0.9018445295514539  0.6028907376457937  1.0000
  H   H13       1.0  0.5291583557700505  0.10626409365795553  0.28862633201060817  1.0000
  H   H14       1.0  0.5797546975663863  0.7535907649435103  0.6205273738596588  1.0000
  H   H15       1.0  0.10001634023501538  0.2681131728750188  0.13127873337361962  1.0000
  H   H16       1.0  0.5648726118088234  0.3339270588476211  0.4132018426025752  1.0000
  S   S1        1.0  0.18525829205646005  0.8804002384822525  0.30943689170089783  1.0000
  S   S2        1.0  0.5322846437775297  0.8117051304143388  0.4281714330900286  1.0000
  S   S3        1.0  0.8829865502848406  0.8154876832960554  0.3960778921027668  1.0000
  S   S4        1.0  0.29921230251784436  0.6941529608448036  0.9132925075246021  1.0000
  S   S5        1.0  0.7233755655761342  0.6215302019845694  0.03926794504513964  1.0000
  S   S6        1.0  0.9886396400288504  0.8409173513773567  0.9764675542974146  1.0000
  S   S7        1.0  0.40141781480633654  0.7102153133455431  0.7342807211607578  1.0000
  S   S8        1.0  0.48724581157193825  0.061195529873657506  0.8215073249812122  1.0000
data_image23
_chemical_formula_structural       H16S8
_chemical_formula_sum              "H16 S8"
_cell_length_a       8.83753075774048
_cell_length_b       8.83753075774048
_cell_length_c       8.83753075774048
_cell_angle_alpha    118.690318510586
_cell_angle_beta     118.69031851058598
_cell_angle_gamma    92.28380992055807

_space_group_name_H-M_alt    "P 1"
_space_group_IT_number       1

loop_
  _space_group_symop_operation_xyz
  'x, y, z'

loop_
  _atom_site_type_symbol
  _atom_site_label
  _atom_site_symmetry_multiplicity
  _atom_site_fract_x
  _atom_site_fract_y
  _atom_site_fract_z
  _atom_site_occupancy
  H   H1        1.0  0.3299967049388215  0.3927092314697802  0.3755282372003421  1.0000
  H   H2        1.0  0.6507877063704655  0.22989003953989595  0.5813370433170348  1.0000
  H   H3        1.0  0.3090223904000595  0.030578354431781918  0.32548035972286016  1.0000
  H   H4        1.0  0.29437251144554466  0.11633918154984713  0.7371674095047638  1.0000
  H   H5        1.0  0.9653136400156654  0.20889154715405311  0.300938313244842  1.0000
  H   H6        1.0  0.033157649624627084  0.6738910712847428  0.6461870582570555  1.0000
  H   H7        1.0  0.7158386001101462  0.8902357718907297  0.23891183291561902  1.0000
  H   H8        1.0  0.2755768276838353  0.7061853917548433  0.08136676422145683  1.0000
  H   H9        1.0  0.6054000111762434  0.41190064675174654  0.3906616026069969  1.0000
  H   H10       1.0  0.8787105176597834  0.23660342814400792  0.06686082214582711  1.0000
  H   H11       1.0  0.2762914892518893  0.061331164732109755  0.37489044904941693  1.0000
  H   H12       1.0  0.7211566684418358  0.6241984786465764  0.6129672874230891  1.0000
  H   H13       1.0  0.6547575438307831  0.6766547028091736  0.4582602531227167  1.0000
  H   H14       1.0  0.6383751797839068  0.4131002447102219  0.11240775510668755  1.0000
  H   H15       1.0  0.6665968928136863  0.8385785256687086  0.9453834610758349  1.0000
  H   H16       1.0  0.2525483510362392  0.28614465409191325  0.1222900900465902  1.0000
  S   S1        1.0  0.9784912030281703  0.03674020136895706  0.351446787462919  1.0000
  S   S2        1.0  0.9830965244327672  0.3337663417769363  0.45309424841980217  1.0000
  S   S3        1.0  0.16807010318007087  0.8998719139945024  0.352147210505791  1.0000
  S   S4        1.0  0.4376357397995889  0.8832318175700493  0.7406479091732763  1.0000
  S   S5        1.0  0.7728219268028624  0.7204600311815739  0.8485932862968184  1.0000
  S   S6        1.0  0.5425918914334034  0.08766337658471457  0.039220194827066734  1.0000
  S   S7        1.0  0.5220726638617634  0.7005516443823581  0.1400440267570957  1.0000
  S   S8        1.0  0.661704311570702  0.49871235550381243  0.5624096359606483  1.0000
data_image24
_chemical_formula_structural       H16S8
_chemical_formula_sum              "H16 S8"
_cell_length_a       8.83753075774048
_cell_length_b       8.83753075774048
_cell_length_c       8.83753075774048
_cell_angle_alpha    118.690318510586
_cell_angle_beta     118.69031851058598
_cell_angle_gamma    92.28380992055807

_space_group_name_H-M_alt    "P 1"
_space_group_IT_number       1

loop_
  _space_group_symop_operation_xyz
  'x, y, z'

loop_
  _atom_site_type_symbol
  _atom_site_label
  _atom_site_symmetry_multiplicity
  _atom_site_fract_x
  _atom_site_fract_y
  _atom_site_fract_z
  _atom_site_occupancy
  H   H1        1.0  0.06398911302676424  0.09953770466381684  0.6220844335621223  1.0000
  H   H2        1.0  0.5712652027141303  0.9579124229203444  0.8555591411422938  1.0000
  H   H3        1.0  0.03728443576255813  0.359628654201515  0.7635869252262637  1.0000
  H   H4        1.0  0.4790912683820352  0.09857089119032025  0.771350065479055  1.0000
  H   H5        1.0  0.6389625020965468  0.15358033595839515  0.0721197307575494  1.0000
  H   H6        1.0  0.46388313930947334  0.8100399597315118  0.3573451107076835  1.0000
  H   H7        1.0  0.09412704694841523  0.4323804727755487  0.16023724200204015  1.0000
  H   H8        1.0  0.6963384028640576  0.6156433295691386  0.5278664731304161  1.0000
  H   H9        1.0  0.6766642255242914  0.6858149223262444  0.4543031982611865  1.0000
  H   H10       1.0  0.46381668373942375  0.9289825586602092  0.9037714758887887  1.0000
  H   H11       1.0  0.13891896640416235  0.04826001520268619  0.13053876539925113  1.0000
  H   H12       1.0  0.6444350241217762  0.7599902702495456  0.3251449015806429  1.0000
  H   H13       1.0  0.8022292705099971  0.17975162563379854  0.8580141225247644  1.0000
  H   H14       1.0  0.4967673736391589  0.4646111661568284  0.2934545851312578  1.0000
  H   H15       1.0  0.6577922925062012  0.4790131697372999  0.04526662948774174  1.0000
  H   H16       1.0  0.7665698890123167  0.6984637400601059  0.8698247011343483  1.0000
  S   S1        1.0  0.3287378634959168  0.8095501481147949  0.21816296365796006  1.0000
  S   S2        1.0  0.2143997524108272  0.3207040247216355  0.7282045116262452  1.0000
  S   S3        1.0  0.7957020238391124  0.9876975840234081  0.4811596332874615  1.0000
  S   S4        1.0  0.9225064921192825  0.000520293484441936  0.5233747632591985  1.0000
  S   S5        1.0  0.2662570001266431  0.2562693145009689  0.2415362981846556  1.0000
  S   S6        1.0  0.8278196150640724  0.14013521583365218  0.5453943840984721  1.0000
  S   S7        1.0  0.11368520817995886  0.7922799916996155  0.4164599950399861  1.0000
  S   S8        1.0  0.5747851511232511  0.09267769244252122  0.17401806006091647  1.0000
data_image25
_chemical_formula_structural       H16S8
_chemical_formula_sum              "H16 S8"
_cell_length_a       8.83753075774048
_cell_length_b       8.83753075774048
_cell_length_c       8.83753075774048
_cell_angle_alpha    118.690318510586
_cell_angle_beta     118.69031851058598
_cell_angle_gamma    92.28380992055807

_space_group_name_H-M_alt    "P 1"
_space_group_IT_number       1

loop_
  _space_group_symop_operation_xyz
  'x, y, z'

loop_
  _atom_site_type_symbol
  _atom_site_label
  _atom_site_symmetry_multiplicity
  _atom_site_fract_x
  _atom_site_fract_y
  _atom_site_fract_z
  _atom_site_occupancy
  H   H1        1.0  0.24329007405322045  0.6143121760105714  0.8396057387581095  1.0000
  H   H2        1.0  0.4757604399783304  0.06582146231085062  0.45213365042582154  1.0000
  H   H3        1.0  0.5385958146653138  0.4972390792099759  0.7497888194629923  1.0000
  H   H4        1.0  0.8239688436733559  0.3358587007969618  0.3281540614552796  1.0000
  H   H5        1.0  0.7470767785562202  0.9203492900996935  0.9754344566026703  1.0000
  H   H6        1.0  0.14192668115720153  0.11534094488888513  0.2869782372727059  1.0000
  H   H7        1.0  0.5502147805818822  0.12856490584090352  0.8673509592190385  1.0000
  H   H8        1.0  0.3626097779488191  0.5778583688661456  0.3010081085958518  1.0000
  H   H9        1.0  0.26169564272277057  0.6848061235505156  0.2499185362830758  1.0000
  H   H10       1.0  0.2708387316670269  0.2833554798271507  0.982849144958891  1.0000
  H   H11       1.0  0.3267980128293857  0.9869902516948059  0.5736186612630263  1.0000
  H   H12       1.0  0.4779469813220203  0.4601949731586501  0.2257337280898355  1.0000
  H   H13       1.0  0.43695437884889543  0.7928986049373634  0.27489122352562845  1.0000
  H   H14       1.0  0.3399618839030154  0.32474061637185514  0.12983131979126483  1.0000
  H   H15       1.0  0.09120519497082569  0.1378074762178585  0.3481359436409548  1.0000
  H   H16       1.0  0.19049518238171004  0.03145728769595735  0.3931529017572757  1.0000
  S   S1        1.0  0.6788546409243281  0.25900708120752824  0.6045946923404699  1.0000
  S   S2        1.0  0.9706243174732663  0.07041100267088041  0.06198279698219267  1.0000
  S   S3        1.0  0.3023959650527104  0.40198982565198094  0.1582878465706017  1.0000
  S   S4        1.0  0.2344262838596478  0.6492868229979649  0.42676401464268565  1.0000
  S   S5        1.0  0.43777727690758184  0.021309853938873857  0.12282678065821528  1.0000
  S   S6        1.0  0.3658804331062129  0.5011907923180843  0.9688269873295212  1.0000
  S   S7        1.0  0.06415908525741543  0.6302305679928395  0.004002978375865496  1.0000
  S   S8        1.0  0.7314067950537719  0.4720575428873417  0.6287118494365131  1.0000
data_image26
_chemical_formula_structural       H16S8
_chemical_formula_sum              "H16 S8"
_cell_length_a       8.83753075774048
_cell_length_b       8.83753075774048
_cell_length_c       8.83753075774048
_cell_angle_alpha    118.690318510586
_cell_angle_beta     118.69031851058598
_cell_angle_gamma    92.28380992055807

_space_group_name_H-M_alt    "P 1"
_space_group_IT_number       1

loop_
  _space_group_symop_operation_xyz
  'x, y, z'

loop_
  _atom_site_type_symbol
  _atom_site_label
  _atom_site_symmetry_multiplicity
  _atom_site_fract_x
  _atom_site_fract_y
  _atom_site_fract_z
  _atom_site_occupancy
  H   H1        1.0  0.3193046727683395  0.14717310562264174  0.7956120927119628  1.0000
  H   H2        1.0  0.4067122720152838  0.6032166556688026  0.19543341314420104  1.0000
  H   H3        1.0  0.05375980318058282  0.1591618985403329  0.6689991560997441  1.0000
  H   H4        1.0  0.6763545675203204  0.6657287939451635  0.9820716942194849  1.0000
  H   H5        1.0  0.7346189958916511  0.15309545881609665  0.8941741334274411  1.0000
  H   H6        1.0  0.1564833140000701  0.5188427218672587  0.596088097197935  1.0000
  H   H7        1.0  0.21957763258251362  0.45257735066115856  0.6597740636207163  1.0000
  H   H8        1.0  0.16569973033620045  0.9151068634819239  0.4135512963985093  1.0000
  H   H9        1.0  0.6880691959522665  0.1571952157537453  0.25865900982171297  1.0000
  H   H10       1.0  0.9295366400619969  0.8440667026443407  0.7972985076485202  1.0000
  H   H11       1.0  0.10449088655877858  0.291145087685436  0.46028581756399944  1.0000
  H   H12       1.0  0.1837322220671922  0.9938796940259635  0.2903421465889551  1.0000
  H   H13       1.0  0.5730232469795737  0.6019602029700764  0.1489551700942684  1.0000
  H   H14       1.0  0.6868808009312488  0.2101535873953253  0.21426958532538265  1.0000
  H   H15       1.0  0.13422826924943365  0.09546486826729961  0.41928209096658975  1.0000
  H   H16       1.0  0.09140099911019206  0.6759616778581403  0.4704400299815461  1.0000
  S   S1        1.0  0.09571472696188721  0.10210311145783635  0.45699004325069836  1.0000
  S   S2        1.0  0.12778330547735095  0.14543657714966685  0.9941312046680792  1.0000
  S   S3        1.0  0.4774166578936274  0.4612662570361863  0.8711319983995054  1.0000
  S   S4        1.0  0.9651334409863921  0.7286517807515338  0.9705439363606274  1.0000
  S   S5        1.0  0.4760873423074372  0.8493040872854181  0.22522613272303715  1.0000
  S   S6        1.0  0.5225988416932523  0.48224655822559725  0.4420126025506761  1.0000
  S   S7        1.0  0.38171745492945774  0.2869123253694852  0.8352887452947471  1.0000
  S   S8        1.0  0.8957758081705833  0.05610728474857751  0.9789463039342081  1.0000
data_image27
_chemical_formula_structural       H16S8
_chemical_formula_sum              "H16 S8"
_cell_length_a       8.83753075774048
_cell_length_b       8.83753075774048
_cell_length_c       8.83753075774048
_cell_angle_alpha    118.690318510586
_cell_angle_beta     118.69031851058598
_cell_angle_gamma    92.28380992055807

_space_group_name_H-M_alt    "P 1"
_space_group_IT_number       1

loop_
  _space_group_symop_operation_xyz
  'x, y, z'

loop_
  _atom_site_type_symbol
  _atom_site_label
  _atom_site_symmetry_multiplicity
  _atom_site_fract_x
  _atom_site_fract_y
  _atom_site_fract_z
  _atom_site_occupancy
  H   H1        1.0  0.5269636828452349  0.16765913093695417  0.2621440595248714  1.0000
  H   H2        1.0  0.8462801889836555  0.061677641002461314  0.7503639447968453  1.0000
  H   H3        1.0  0.8288457868620753  0.988491649448406  0.4310621290933341  1.0000
  H   H4        1.0  0.5384801138425246  0.4999963806476444  0.9866700598504394  1.0000
  H   H5        1.0  0.290018274798058  0.8176672523368325  0.8804870476014912  1.0000
  H   H6        1.0  0.3648792658932507  0.17760478510172106  0.2052693388541229  1.0000
  H   H7        1.0  0.09845666639739648  0.3972444534301758  0.6884970529936254  1.0000
  H   H8        1.0  0.43211181231890805  0.5233467184007168  0.5208809425239451  1.0000
  H   H9        1.0  0.8275531672406942  0.6683761662279721  0.15837150276638567  1.0000
  H   H10       1.0  0.20593548461329192  0.9890754523221403  0.6534587618662044  1.0000
  H   H11       1.0  0.2630091909086332  0.834032662154641  0.3693288375507109  1.0000
  H   H12       1.0  0.32397370354738086  0.05369829467963427  0.3422496933490038  1.0000
  H   H13       1.0  0.7631024201400578  0.9045137258362956  0.35027376835932955  1.0000
  H   H14       1.0  0.7845502848504111  0.0896004110109061  0.3237129030749202  1.0000
  H   H15       1.0  0.5917744155740365  0.6516245877137408  0.9345977248740382  1.0000
  H   H16       1.0  0.7520221554441378  0.6733952710055746  0.6265396610833704  1.0000
  S   S1        1.0  0.14126861280965386  0.2027029051464524  0.507224860804854  1.0000
  S   S2        1.0  0.20505893527297303  0.7627473374886904  0.44284730442086584  1.0000
  S   S3        1.0  0.3731276661128504  0.4732550525732222  0.40083311998751014  1.0000
  S   S4        1.0  0.4745622019690927  0.5199346623849124  0.9974232339591254  1.0000
  S   S5        1.0  0.9744335835275706  0.5351492411573417  0.9755041368189268  1.0000
  S   S6        1.0  0.4241265324817505  0.8154802866083628  0.5969305392063688  1.0000
  S   S7        1.0  0.12413771367209847  0.4168455348335556  0.9286264959355321  1.0000
  S   S8        1.0  0.20846051420085132  0.9671513511711964  0.8150681937258923  1.0000
data_image28
_chemical_formula_structural       H16S8
_chemical_formula_sum              "H16 S8"
_cell_length_a       8.83753075774048
_cell_length_b       8.83753075774048
_cell_length_c       8.83753075774048
_cell_angle_alpha    118.690318510586
_cell_angle_beta     118.69031851058598
_cell_angle_gamma    92.28380992055807

_space_group_name_H-M_alt    "P 1"
_space_group_IT_number       1

loop_
  _space_group_symop_operation_xyz
  'x, y, z'

loop_
  _atom_site_type_symbol
  _atom_site_label
  _atom_site_symmetry_multiplicity
  _atom_site_fract_x
  _atom_site_fract_y
  _atom_site_fract_z
  _atom_site_occupancy
  H   H1        1.0  0.3233610694296658  0.09648096020100638  0.6985738292569295  1.0000
  H   H2        1.0  0.30206544797692914  0.5044208390172571  0.6095104228006676  1.0000
  H   H3        1.0  0.2947072008391842  0.49201311625074595  0.1774011270608753  1.0000
  H   H4        1.0  0.6954286899417639  0.269738853443414  0.5377646307460964  1.0000
  H   H5        1.0  0.1402013092715606  0.5882614201109391  0.6610048081493005  1.0000
  H   H6        1.0  0.5221294934744947  0.8578503055905458  0.2833237088052556  1.0000
  H   H7        1.0  0.9731103560188785  0.9953282615169883  0.16848568012937903  1.0000
  H   H8        1.0  0.4662441876716912  0.89555639680475  0.7441582837491296  1.0000
  H   H9        1.0  0.7742719044908881  0.7971716521969938  0.7474310754332691  1.0000
  H   H10       1.0  0.9267745994584402  0.9312555311480537  0.2061909552430734  1.0000
  H   H11       1.0  0.035284904995933175  0.875646045897156  0.4000387904816307  1.0000
  H   H12       1.0  0.3840102475369349  0.9323947814991698  0.8101530453423038  1.0000
  H   H13       1.0  0.33788928523426875  0.37756972608622164  0.6688852031365968  1.0000
  H   H14       1.0  0.2460646869149059  0.26297355559654534  0.8940967948874459  1.0000
  H   H15       1.0  0.9305043951608241  0.5341771529056132  0.26655140901129926  1.0000
  H   H16       1.0  0.9796111019095406  0.2524011561763473  0.8233751095249318  1.0000
  S   S1        1.0  0.1556484243410523  0.8360736539543723  0.16180371036170982  1.0000
  S   S2        1.0  0.38529454782838  0.07897326440433972  0.6473795309393608  1.0000
  S   S3        1.0  0.7773410610025167  0.7720446888756669  0.9197388379543554  1.0000
  S   S4        1.0  0.6779049971082713  0.039984959876164794  0.07067835568159353  1.0000
  S   S5        1.0  0.13900126444059424  0.8615619849879295  0.35077592683956027  1.0000
  S   S6        1.0  0.8804027458754717  0.13009074531146325  0.02050578522903379  1.0000
  S   S7        1.0  0.868059229098435  0.6609431149481679  0.0330295112762542  1.0000
  S   S8        1.0  0.6989634820370156  0.28064794960664585  0.5656130627612583  1.0000
data_image29
_chemical_formula_structural       H16S8
_chemical_formula_sum              "H16 S8"
_cell_length_a       8.83753075774048
_cell_length_b       8.83753075774048
_cell_length_c       8.83753075774048
_cell_angle_alpha    118.690318510586
_cell_angle_beta     118.69031851058598
_cell_angle_gamma    92.28380992055807

_space_group_name_H-M_alt    "P 1"
_space_group_IT_number       1

loop_
  _space_group_symop_operation_xyz
  'x, y, z'

loop_
  _atom_site_type_symbol
  _atom_site_label
  _atom_site_symmetry_multiplicity
  _atom_site_fract_x
  _atom_site_fract_y
  _atom_site_fract_z
  _atom_site_occupancy
  H   H1        1.0  0.5476062187808566  0.3223328549647704  0.07852441188879311  1.0000
  H   H2        1.0  0.5551204190851422  0.11231354833580554  0.8139044947456568  1.0000
  H   H3        1.0  0.15365215187193826  0.5341530230944045  0.8637666899012402  1.0000
  H   H4        1.0  0.156727749039419  0.3514572128187865  0.24721848778426647  1.0000
  H   H5        1.0  0.2326772477972554  0.8661956419236958  0.7081989460857585  1.0000
  H   H6        1.0  0.16959722759202123  0.8385252170264721  0.919256541877985  1.0000
  H   H7        1.0  0.1650969225447625  0.11983269406482577  0.9719916875474155  1.0000
  H   H8        1.0  0.6209892665792722  0.5169422982726246  0.12474086991278455  1.0000
  H   H9        1.0  0.3353773234412074  0.7263862903055269  0.07036491308826953  1.0000
  H   H10       1.0  0.8702877788164187  0.5452411018777639  0.44712151517160237  1.0000
  H   H11       1.0  0.012057940533850342  0.3684365461813286  0.4223995602224022  1.0000
  H   H12       1.0  0.5526556170079857  0.03392878675367683  0.07414238364435732  1.0000
  H   H13       1.0  0.6406486777123064  0.735004878428299  0.19705271132988855  1.0000
  H   H14       1.0  0.39986806304659694  0.8070300291292369  0.8987502191448584  1.0000
  H   H15       1.0  0.18682954949326813  0.3240404473617673  0.9732899721639114  1.0000
  H   H16       1.0  0.5270747288013808  0.6673320303671062  0.5033499656710774  1.0000
  S   S1        1.0  0.9087748486490455  0.07252482726471499  0.2631792350439355  1.0000
  S   S2        1.0  0.8640741311392048  0.3807323038636241  0.2135962823231239  1.0000
  S   S3        1.0  0.669555535496329  0.4538606360861195  0.7321731252450263  1.0000
  S   S4        1.0  0.4207200171658769  0.469229462207295  0.3609792094648583  1.0000
  S   S5        1.0  0.9689887803397141  0.6730645116185769  0.4072568875271827  1.0000
  S   S6        1.0  0.7475155717093003  0.13906423043226823  0.5717744921421399  1.0000
  S   S7        1.0  0.8668068765691714  0.9006192014348926  0.34669347936142003  1.0000
  S   S8        1.0  0.5348804037957962  0.6212000512969098  0.24477338627912104  1.0000
data_image30
_chemical_formula_structural       H16S8
_chemical_formula_sum              "H16 S8"
_cell_length_a       8.83753075774048
_cell_length_b       8.83753075774048
_cell_length_c       8.83753075774048
_cell_angle_alpha    118.690318510586
_cell_angle_beta     118.69031851058598
_cell_angle_gamma    92.28380992055807

_space_group_name_H-M_alt    "P 1"
_space_group_IT_number       1

loop_
  _space_group_symop_operation_xyz
  'x, y, z'

loop_
  _atom_site_type_symbol
  _atom_site_label
  _atom_site_symmetry_multiplicity
  _atom_site_fract_x
  _atom_site_fract_y
  _atom_site_fract_z
  _atom_site_occupancy
  H   H1        1.0  0.0621543787419796  0.9060063590877689  0.8851367557654157  1.0000
  H   H2        1.0  0.5781874655804131  0.13155961339361966  0.7105960586341098  1.0000
  H   H3        1.0  0.3622801950550638  0.7412846927763894  0.6304252078989521  1.0000
  H   H4        1.0  0.18978348921518773  0.3547795016784221  0.05413378367666155  1.0000
  H   H5        1.0  0.4647266075917287  0.5326420837081969  0.6919879062334076  1.0000
  H   H6        1.0  0.3315420327708125  0.24847839400172234  0.08497754670679569  1.0000
  H   H7        1.0  0.13090714626014233  0.5890331664122641  0.3035366195254028  1.0000
  H   H8        1.0  0.6153664273733739  0.5515442066825926  0.5051775869796984  1.0000
  H   H9        1.0  0.10161898215301335  0.09882515247591073  0.8446801432874054  1.0000
  H   H10       1.0  0.8012432524265023  0.8835809337906539  0.7654450410045683  1.0000
  H   H11       1.0  0.9175265378435142  0.06988247850676998  0.9530130070634186  1.0000
  H   H12       1.0  0.7269393668975681  0.2854363088263199  0.9723418394569308  1.0000
  H   H13       1.0  0.3356605963781476  0.8282284525921568  0.5214887491310947  1.0000
  H   H14       1.0  0.7352029058965854  0.8953641802072525  0.5510001290822402  1.0000
  H   H15       1.0  0.6632023688871413  0.7011445399839431  0.009838780140853487  1.0000
  H   H16       1.0  0.6285894449683838  0.6672443334246054  0.47599453455768526  1.0000
  S   S1        1.0  0.8504106986511033  0.09609953410108574  0.47101095237303525  1.0000
  S   S2        1.0  0.31307524121075403  0.1969114999519661  0.007897273957496509  1.0000
  S   S3        1.0  0.6783727002912201  0.6699078322512833  0.7757034293026663  1.0000
  S   S4        1.0  0.29549783980473876  0.8106653774157166  0.12130718433763832  1.0000
  S   S5        1.0  0.7957391125382856  0.6371143785945605  0.6834987858019304  1.0000
  S   S6        1.0  0.784642416007955  0.029863435323932208  0.3793085318757221  1.0000
  S   S7        1.0  0.2338299394614296  0.6618750755515066  0.11252755537861958  1.0000
  S   S8        1.0  0.857269586478651  0.30337515943392646  0.4367113962653093  1.0000
data_image31
_chemical_formula_structural       H16S8
_chemical_formula_sum              "H16 S8"
_cell_length_a       8.83753075774048
_cell_length_b       8.83753075774048
_cell_length_c       8.83753075774048
_cell_angle_alpha    118.690318510586
_cell_angle_beta     118.69031851058598
_cell_angle_gamma    92.28380992055807

_space_group_name_H-M_alt    "P 1"
_space_group_IT_number       1

loop_
  _space_group_symop_operation_xyz
  'x, y, z'

loop_
  _atom_site_type_symbol
  _atom_site_label
  _atom_site_symmetry_multiplicity
  _atom_site_fract_x
  _atom_site_fract_y
  _atom_site_fract_z
  _atom_site_occupancy
  H   H1        1.0  0.18026208074297756  0.4181287393439561  0.8241598374443129  1.0000
  H   H2        1.0  0.2420731286983937  0.07545309443958104  0.021100036683492362  1.0000
  H   H3        1.0  0.2868323501897976  0.8432169815059751  0.2200837500859052  1.0000
  H   H4        1.0  0.5068888305686414  0.46007156337145716  0.9111700867069885  1.0000
  H   H5        1.0  0.5661655189469457  0.20250223034236114  0.7610167429083958  1.0000
  H   H6        1.0  0.9337275680154562  0.8891277331858873  0.9205536525696516  1.0000
  H   H7        1.0  0.6355726469773799  0.05957060540094972  0.35377861885353923  1.0000
  H   H8        1.0  0.7498089302098379  0.17545229056850076  0.21986543864477426  1.0000
  H   H9        1.0  0.47273971512913704  0.4060460101609351  0.5750577626749873  1.0000
  H   H10       1.0  0.2927027263249329  0.7850383592303842  0.15998759143985808  1.0000
  H   H11       1.0  0.9838375855470076  0.3559617273276672  0.981128741404973  1.0000
  H   H12       1.0  0.2866113482741639  0.7205966142937541  0.8374353351537138  1.0000
  H   H13       1.0  0.7124053495936096  0.192712303774897  0.6257107755518518  1.0000
  H   H14       1.0  0.9331434839405119  0.46551210642792284  0.76170185348019  1.0000
  H   H15       1.0  0.7345738252624869  0.23490213695913553  0.7212537986197276  1.0000
  H   H16       1.0  0.9497988285147585  0.13230532172019593  0.44721078290604055  1.0000
  S   S1        1.0  0.9060307551553706  0.5644711253044079  0.6884738165535964  1.0000
  S   S2        1.0  0.024529888381948695  0.4957791282213293  0.5714181277435273  1.0000
  S   S3        1.0  0.7151572136353934  0.9119353865316953  0.8818184372066753  1.0000
  S   S4        1.0  0.2157191393780522  0.32694158970844  0.8558200022671372  1.0000
  S   S5        1.0  0.14806542010046542  0.7590997243532911  0.5138946253573522  1.0000
  S   S6        1.0  0.7529975055949762  0.07549828995252028  0.3322235849336721  1.0000
  S   S7        1.0  0.7999819347314769  0.9094537628843682  0.8721942118863808  1.0000
  S   S8        1.0  0.17276925698388368  0.5395136461593211  0.8878125563496724  1.0000
data_image32
_chemical_formula_structural       H16S8
_chemical_formula_sum              "H16 S8"
_cell_length_a       8.83753075774048
_cell_length_b       8.83753075774048
_cell_length_c       8.83753075774048
_cell_angle_alpha    118.690318510586
_cell_angle_beta     118.69031851058598
_cell_angle_gamma    92.28380992055807

_space_group_name_H-M_alt    "P 1"
_space_group_IT_number       1

loop_
  _space_group_symop_operation_xyz
  'x, y, z'

loop_
  _atom_site_type_symbol
  _atom_site_label
  _atom_site_symmetry_multiplicity
  _atom_site_fract_x
  _atom_site_fract_y
  _atom_site_fract_z
  _atom_site_occupancy
  H   H1        1.0  0.3324500760063529  0.48023864562856033  0.797993061831221  1.0000
  H   H2        1.0  0.6129630954237655  0.8968459118623286  0.5938787325285375  1.0000
  H   H3        1.0  0.3334608027653303  0.72576023612055  0.4259082613280043  1.0000
  H   H4        1.0  0.3705259582493454  0.5888623974751681  0.26266878994647413  1.0000
  H   H5        1.0  0.38733231188962236  0.03299708670238033  0.505371774546802  1.0000
  H   H6        1.0  0.7361263083294034  0.757583356462419  0.12180302292108536  1.0000
  H   H7        1.0  0.9887223301338963  0.24713474232703447  0.7811421719379723  1.0000
  H   H8        1.0  0.9809330699208658  0.4964861376211047  0.19704040564829484  1.0000
  H   H9        1.0  0.2194743691943586  0.11280255898600444  0.26844481471925974  1.0000
  H   H10       1.0  0.5799851158772071  0.9761003646999598  0.31207242610980757  1.0000
  H   H11       1.0  0.006969255140575115  0.4676738880807534  0.7060611313208938  1.0000
  H   H12       1.0  0.16821566550061107  0.9833492542384192  0.41787795105483383  1.0000
  H   H13       1.0  0.3359937428031117  0.4192826824146323  0.5593530118349008  1.0000
  H   H14       1.0  0.3938758395379409  0.15122750727459788  0.8554694703780115  1.0000
  H   H15       1.0  0.92458236659877  0.4763024791609496  0.7751950835081516  1.0000
  H   H16       1.0  0.6208602617844008  0.8734209046233445  0.23886359768221155  1.0000
  S   S1        1.0  0.3630551944079343  0.5615754035388818  0.4226905162795447  1.0000
  S   S2        1.0  0.9132348114217166  0.24753474921453744  0.7992405803088332  1.0000
  S   S3        1.0  0.03928099391669093  0.05848912776855286  0.7660849338863045  1.0000
  S   S4        1.0  0.3179155106190592  0.9624489373527467  0.35677795673836954  1.0000
  S   S5        1.0  0.38059325818903744  0.5727214892394841  0.3614852245664224  1.0000
  S   S6        1.0  0.35764959266089136  0.9654156489414163  0.2717418136599008  1.0000
  S   S7        1.0  0.28657163033494726  0.04364248694400885  0.5774480580003001  1.0000
  S   S8        1.0  0.619430937578727  0.5426015885313973  0.4135036188235972  1.0000
data_image33
_chemical_formula_structural       H16S8
_chemical_formula_sum              "H16 S8"
_cell_length_a       8.83753075774048
_cell_length_b       8.83753075774048
_cell_length_c       8.83753075774048
_cell_angle_alpha    118.690318510586
_cell_angle_beta     118.69031851058598
_cell_angle_gamma    92.28380992055807

_space_group_name_H-M_alt    "P 1"
_space_group_IT_number       1

loop_
  _space_group_symop_operation_xyz
  'x, y, z'

loop_
  _atom_site_type_symbol
  _atom_site_label
  _atom_site_symmetry_multiplicity
  _atom_site_fract_x
  _atom_site_fract_y
  _atom_site_fract_z
  _atom_site_occupancy
  H   H1        1.0  0.859683764516376  0.974093021126464  0.7723256158642471  1.0000
  H   H2        1.0  0.6814103606157005  0.28849512711167336  0.404325146577321  1.0000
  H   H3        1.0  0.5970251520047896  0.3150271226913901  0.5798878384521231  1.0000
  H   H4        1.0  0.7217577014816925  0.20340612158179283  0.2578170843189582  1.0000
  H   H5        1.0  0.9874990922398865  0.7946677347645164  0.8444976023165509  1.0000
  H   H6        1.0  0.4128346899524331  0.3934825751930475  0.366698095574975  1.0000
  H   H7        1.0  0.6747576007037424  0.35401416663080454  0.6795330825261772  1.0000
  H   H8        1.0  0.7523772470303811  0.01767531456425786  0.8308888830943033  1.0000
  H   H9        1.0  0.5981651595793664  0.10259983995638322  0.336987609625794  1.0000
  H   H10       1.0  0.6934028958785348  0.7204110288294032  0.6192093082299834  1.0000
  H   H11       1.0  0.7562955396133475  0.32035580050433055  0.5721605739090592  1.0000
  H   H12       1.0  0.8510302829090506  0.8415711123961955  0.18522784468950704  1.0000
  H   H13       1.0  0.3975252882228233  0.3762105053756386  0.3603884003532585  1.0000
  H   H14       1.0  0.6886969062034041  0.47876987187191844  0.34715284779667854  1.0000
  H   H15       1.0  0.9732750549446791  0.8844670082908124  0.7692976123362314  1.0000
  H   H16       1.0  0.7676159119582735  0.5727126872225199  0.651021922705695  1.0000
  S   S1        1.0  0.08596364213735797  0.5015116673603188  0.3468625507084653  1.0000
  S   S2        1.0  0.7712944996455917  0.06636538088787347  0.5346899839205435  1.0000
  S   S3        1.0  0.9157640200355672  0.4548998930113157  0.20322986308019608  1.0000
  S   S4        1.0  0.026287154702004045  0.5267832071986049  0.7371516375569627  1.0000
  S   S5        1.0  0.8348341910750605  0.8181702357833274  0.490136127686128  1.0000
  S   S6        1.0  0.47784409986343235  0.23290837933018338  0.37146459288487677  1.0000
  S   S7        1.0  0.8249011968728155  0.6454670466027892  0.9447694232512731  1.0000
  S   S8        1.0  0.8551273981465783  0.28988589154323563  0.4571103668422438  1.0000
data_image34
_chemical_formula_structural       H16S8
_chemical_formula_sum              "H16 S8"
_cell_length_a       8.83753075774048
_cell_length_b       8.83753075774048
_cell_length_c       8.83753075774048
_cell_angle_alpha    118.690318510586
_cell_angle_beta     118.69031851058598
_cell_angle_gamma    92.28380992055807

_space_group_name_H-M_alt    "P 1"
_space_group_IT_number       1

loop_
  _space_group_symop_operation_xyz
  'x, y, z'

loop_
  _atom_site_type_symbol
  _atom_site_label
  _atom_site_symmetry_multiplicity
  _atom_site_fract_x
  _atom_site_fract_y
  _atom_site_fract_z
  _atom_site_occupancy
  H   H1        1.0  0.1798712033778429  0.876079433306586  0.9158067862736061  1.0000
  H   H2        1.0  0.6962962918914855  0.8770757599268109  0.31319408654235303  1.0000
  H   H3        1.0  0.5782370145607274  0.18651774433419632  0.43356578482780606  1.0000
  H   H4        1.0  0.37038420618046075  0.1326563989277929  0.6465329722268507  1.0000
  H   H5        1.0  0.9796857421752065  0.22960119927302003  0.47026678221300244  1.0000
  H   H6        1.0  0.45360159035772085  0.9378472361713648  0.23676877282559872  1.0000
  H   H7        1.0  0.6450933532323688  0.08045141445472836  0.5807519382797182  1.0000
  H   H8        1.0  0.4217405846284237  0.09673737781122327  0.6831822625827044  1.0000
  H   H9        1.0  0.1402194497641176  0.33708991410094313  0.7090520784258842  1.0000
  H   H10       1.0  0.08487339650309877  0.7834290130995214  0.35525348513328936  1.0000
  H   H11       1.0  0.7911489211255684  0.10366098501253873  0.06587594212032855  1.0000
  H   H12       1.0  0.7471349554834887  0.29502331430558115  0.4386402371455915  1.0000
  H   H13       1.0  0.6202498129750893  0.7961942887632176  0.3200898166396655  1.0000
  H   H14       1.0  0.8479883163236082  0.7093748936895281  0.8619201746769249  1.0000
  H   H15       1.0  0.28978334087878466  0.1792015207465738  0.96129143689177  1.0000
  H   H16       1.0  0.2815023251459934  0.5853472567687277  0.28080662788124755  1.0000
  S   S1        1.0  0.9049544942972716  0.17410807294072583  0.9560982002876699  1.0000
  S   S2        1.0  0.276969254483447  0.06344828614965081  0.3508621399960248  1.0000
  S   S3        1.0  0.2714124424928741  0.1653280230530072  0.42926690774038434  1.0000
  S   S4        1.0  0.3141370640951209  0.10239322343841195  0.773710566223599  1.0000
  S   S5        1.0  0.5151640462863725  0.4467316257942002  0.6619707126228604  1.0000
  S   S6        1.0  0.9873831623408478  0.7660213352064602  0.4933330657950137  1.0000
  S   S7        1.0  0.5925727085268591  0.7097362457789131  0.16873673938243883  1.0000
  S   S8        1.0  0.27774460952787194  0.9657577747129835  0.2625443676370196  1.0000
data_image35
_chemical_formula_structural       H16S8
_chemical_formula_sum              "H16 S8"
_cell_length_a       8.83753075774048
_cell_length_b       8.83753075774048
_cell_length_c       8.83753075774048
_cell_angle_alpha    118.690318510586
_cell_angle_beta     118.69031851058598
_cell_angle_gamma    92.28380992055807

_space_group_name_H-M_alt    "P 1"
_space_group_IT_number       1

loop_
  _space_group_symop_operation_xyz
  'x, y, z'

loop_
  _atom_site_type_symbol
  _atom_site_label
  _atom_site_symmetry_multiplicity
  _atom_site_fract_x
  _atom_site_fract_y
  _atom_site_fract_z
  _atom_site_occupancy
  H   H1        1.0  0.19610146572813392  0.45581461110850796  0.7647749327588826  1.0000
  H   H2        1.0  0.5492940868716687  0.9966473064851016  0.06394852919038385  1.0000
  H   H3        1.0  0.9214768450765405  0.6526776700693517  0.5222966523142532  1.0000
  H   H4        1.0  0.8001177776604891  0.32671254908200353  0.837968286825344  1.0000
  H   H5        1.0  0.003424430964514613  0.24907761567737907  0.8957519890973344  1.0000
  H   H6        1.0  0.4340479439124465  0.9036833252757788  0.855790838599205  1.0000
  H   H7        1.0  0.0873749116435647  0.9948627590201795  0.47168015083298087  1.0000
  H   H8        1.0  0.40616252669133246  0.32999248476698995  0.38079769478645176  1.0000
  H   H9        1.0  0.7300531270448118  0.09627162823744584  0.8938102235551924  1.0000
  H   H10       1.0  0.11354387780738762  0.17334113240940496  0.7239671619172441  1.0000
  H   H11       1.0  0.769168141297996  0.9308521298225969  0.4239653025288135  1.0000
  H   H12       1.0  0.66108445788268  0.32366030500270426  0.8534741055336781  1.0000
  H   H13       1.0  0.2586654647402611  0.3119433318497613  0.6339065140346065  1.0000
  H   H14       1.0  0.24380161159206182  0.7397470786236227  0.41750635695643723  1.0000
  H   H15       1.0  0.06538262264803052  0.6833474272862077  0.431005197315244  1.0000
  H   H16       1.0  0.42863580433186144  0.7265821089386009  0.1357806947780773  1.0000
  S   S1        1.0  0.1552493692142889  0.012620701745618135  0.7141836249502376  1.0000
  S   S2        1.0  0.6793085441386211  0.4678500419249758  0.8496786271280143  1.0000
  S   S3        1.0  0.505018687897973  0.9504895142017631  0.08636402001138777  1.0000
  S   S4        1.0  0.9182868240750395  0.6858147685416043  0.690460820129374  1.0000
  S   S5        1.0  0.22145555177121423  0.8732896192232147  0.17813479230972007  1.0000
  S   S6        1.0  0.27017510648147436  0.33797901587968227  0.7894127961917548  1.0000
  S   S7        1.0  0.9623906007327605  0.5206791150485515  0.511566624729312  1.0000
  S   S8        1.0  0.809956047887681  0.16793339513242245  0.07694098094361834  1.0000
data_image36
_chemical_formula_structural       H16S8
_chemical_formula_sum              "H16 S8"
_cell_length_a       8.83753075774048
_cell_length_b       8.83753075774048
_cell_length_c       8.83753075774048
_cell_angle_alpha    118.690318510586
_cell_angle_beta     118.69031851058598
_cell_angle_gamma    92.28380992055807

_space_group_name_H-M_alt    "P 1"
_space_group_IT_number       1

loop_
  _space_group_symop_operation_xyz
  'x, y, z'

loop_
  _atom_site_type_symbol
  _atom_site_label
  _atom_site_symmetry_multiplicity
  _atom_site_fract_x
  _atom_site_fract_y
  _atom_site_fract_z
  _atom_site_occupancy
  H   H1        1.0  0.9140007477253675  0.6008902440662496  0.11738452967256308  1.0000
  H   H2        1.0  0.027098859893158078  0.6717342946212739  0.04126965196337551  1.0000
  H   H3        1.0  0.48768552535329945  0.48829630419277237  0.44721653580199927  1.0000
  H   H4        1.0  0.9722109335707501  0.5528066033730283  0.9953013107879087  1.0000
  H   H5        1.0  0.6450895735761151  0.9604409511666745  0.9202321770135313  1.0000
  H   H6        1.0  0.8000571364536881  0.7629805002361536  0.5011027287691832  1.0000
  H   H7        1.0  0.24923569848760962  0.013840766623616219  0.3487544381059706  1.0000
  H   H8        1.0  0.9049107214668766  0.5352676326874644  0.39917595067527145  1.0000
  H   H9        1.0  0.5764251633081585  0.5474313727463596  0.5681664856383577  1.0000
  H   H10       1.0  0.8986738774547121  0.29047933901892975  0.48847750810091384  1.0000
  H   H11       1.0  0.9385366723872721  0.9297588302288204  0.5937630045227706  1.0000
  H   H12       1.0  0.20684374135453254  0.1490009749541059  0.21976444456959143  1.0000
  H   H13       1.0  0.2932349644979695  0.5828375756391324  0.5002880821703002  1.0000
  H   H14       1.0  0.3297549277776852  0.21139485435560346  0.5653838620055467  1.0000
  H   H15       1.0  0.3819103392306715  0.9076728576328605  0.2974304586168728  1.0000
  H   H16       1.0  0.8907450465485454  0.7683234866708517  0.045016463729552925  1.0000
  S   S1        1.0  0.30217776625067927  0.16441781632602215  0.21215589583152905  1.0000
  S   S2        1.0  0.8698905018463847  0.09566421143244952  0.9769045704451855  1.0000
  S   S3        1.0  0.46927483307081275  0.7798289790225681  0.8447855130652897  1.0000
  S   S4        1.0  0.30832478211959824  0.14841215393971652  0.9714882905827835  1.0000
  S   S5        1.0  0.0418122744304128  0.33718293451238424  0.47885689241229557  1.0000
  S   S6        1.0  0.053913868716335855  0.15941310644848272  0.6696791806461988  1.0000
  S   S7        1.0  0.16485397852375172  0.8057089418371106  0.22182818812143523  1.0000
  S   S8        1.0  0.34034256561426446  0.21265761426184326  0.9539896124624647  1.0000
data_image37
_chemical_formula_structural       H16S8
_chemical_formula_sum              "H16 S8"
_cell_length_a       8.83753075774048
_cell_length_b       8.83753075774048
_cell_length_c       8.83753075774048
_cell_angle_alpha    118.690318510586
_cell_angle_beta     118.69031851058598
_cell_angle_gamma    92.28380992055807

_space_group_name_H-M_alt    "P 1"
_space_group_IT_number       1

loop_
  _space_group_symop_operation_xyz
  'x, y, z'

loop_
  _atom_site_type_symbol
  _atom_site_label
  _atom_site_symmetry_multiplicity
  _atom_site_fract_x
  _atom_site_fract_y
  _atom_site_fract_z
  _atom_site_occupancy
  H   H1        1.0  0.4359738929197192  0.38186480608419515  0.6419631978496909  1.0000
  H   H2        1.0  0.6859916226239875  0.9874395914375782  0.061318438267335296  1.0000
  H   H3        1.0  0.05367135678534396  0.04119984435965307  0.0810488413553685  1.0000
  H   H4        1.0  0.4590152440359816  0.44556350156199187  0.4488058569841087  1.0000
  H   H5        1.0  0.15964080695994198  0.049237898318096995  0.5296580565627664  1.0000
  H   H6        1.0  0.6639294186607003  0.09711272828280926  0.2554214559495449  1.0000
  H   H7        1.0  0.25480680726468563  0.9101356011815369  0.9802382783964276  1.0000
  H   H8        1.0  0.9019932138326112  0.718603708781302  0.32017368378001265  1.0000
  H   H9        1.0  0.6711093219928443  0.09642994057503529  0.690989488735795  1.0000
  H   H10       1.0  0.46604999469127506  0.4081119840266183  0.8513667318038642  1.0000
  H   H11       1.0  0.544947175309062  0.3333296577911824  0.10530408844351768  1.0000
  H   H12       1.0  0.7545996275730431  0.292778336093761  0.747700565319974  1.0000
  H   H13       1.0  0.32617374684195966  0.7903079690295272  0.4332510804524645  1.0000
  H   H14       1.0  0.5494321727892384  0.42422852921299636  0.055206359596922994  1.0000
  H   H15       1.0  0.753633689135313  0.7836879438254982  0.2967568094318267  1.0000
  H   H16       1.0  0.18548259988892823  0.20717571501154453  0.5476784562924877  1.0000
  S   S1        1.0  0.9947360884107184  0.10708710789913312  0.7245146806235425  1.0000
  S   S2        1.0  0.6158264198966208  0.8269808468176052  0.3201112851384096  1.0000
  S   S3        1.0  0.10053364690975286  0.4345558264758438  0.459732895513298  1.0000
  S   S4        1.0  0.9441657871357165  0.8424944269936532  0.19996258537867106  1.0000
  S   S5        1.0  0.2831570401904173  0.05859211063943803  0.004460351658053696  1.0000
  S   S6        1.0  0.3672187914926326  0.8085938349540811  0.10717117442982271  1.0000
  S   S7        1.0  0.03216849015734624  0.5991074515950459  0.0195278341852827  1.0000
  S   S8        1.0  0.8955404811713379  0.7775135459378362  0.2652633852267172  1.0000
data_image38
_chemical_formula_structural       H16S8
_chemical_formula_sum              "H16 S8"
_cell_length_a       8.83753075774048
_cell_length_b       8.83753075774048
_cell_length_c       8.83753075774048
_cell_angle_alpha    118.690318510586
_cell_angle_beta     118.69031851058598
_cell_angle_gamma    92.28380992055807

_space_group_name_H-M_alt    "P 1"
_space_group_IT_number       1

loop_
  _space_group_symop_operation_xyz
  'x, y, z'

loop_
  _atom_site_type_symbol
  _atom_site_label
  _atom_site_symmetry_multiplicity
  _atom_site_fract_x
  _atom_site_fract_y
  _atom_site_fract_z
  _atom_site_occupancy
  H   H1        1.0  0.15411435614805669  0.9100685168959899  0.9502609702758491  1.0000
  H   H2        1.0  0.1315345608163625  0.13157925545237958  0.5579774234211072  1.0000
  H   H3        1.0  0.7176147489226423  0.051491924707079306  0.22700990608427674  1.0000
  H   H4        1.0  0.8102466517593712  0.3825528409797698  0.3043262036808301  1.0000
  H   H5        1.0  0.6127883392618969  0.7209706908324733  0.7933848710963503  1.0000
  H   H6        1.0  0.09100313112139702  0.5391939394176006  0.66220916621387  1.0000
  H   H7        1.0  0.5149201834574342  0.7598942769691348  0.8590353764593601  1.0000
  H   H8        1.0  0.2441964657336939  0.8283402151428163  0.13145253030234016  1.0000
  H   H9        1.0  0.9659690018743277  0.1034099392418284  0.4160199973266572  1.0000
  H   H10       1.0  0.19100167138822144  0.6104795937426388  0.6035908808698878  1.0000
  H   H11       1.0  0.34940020903013647  0.35979943722486496  0.9795397026464343  1.0000
  H   H12       1.0  0.8853949658805504  0.6846476477803662  0.2884665629826486  1.0000
  H   H13       1.0  0.06697498334688134  0.28438410873059183  0.5094444093992934  1.0000
  H   H14       1.0  0.8375937441596761  0.38694802299141884  0.5906395381316543  1.0000
  H   H15       1.0  0.6854540533386171  0.24341589747928083  0.8882132716244087  1.0000
  H   H16       1.0  0.9634798397310078  0.19460591883398592  0.24566345184575766  1.0000
  S   S1        1.0  0.702608951862203  0.6503364205709659  0.27728156541706994  1.0000
  S   S2        1.0  0.12277349852956831  0.735811498365365  0.5060886329447385  1.0000
  S   S3        1.0  0.7297133906395175  0.7895636994217057  0.6359108309261501  1.0000
  S   S4        1.0  0.24454807408619672  0.8994952973444015  0.6537865102582145  1.0000
  S   S5        1.0  0.7285810016328469  0.652833027561428  0.4220440835269983  1.0000
  S   S6        1.0  0.10434164600155782  0.7991182309342548  0.9078365337918513  1.0000
  S   S7        1.0  0.5483307779504685  0.6109539614699315  0.8424920341785764  1.0000
  S   S8        1.0  0.01354632296715863  0.528251939220354  0.9998869897099212  1.0000
data_image39
_chemical_formula_structural       H16S8
_chemical_formula_sum              "H16 S8"
_cell_length_a       8.83753075774048
_cell_length_b       8.83753075774048
_cell_length_c       8.83753075774048
_cell_angle_alpha    118.690318510586
_cell_angle_beta     118.69031851058598
_cell_angle_gamma    92.28380992055807

_space_group_name_H-M_alt    "P 1"
_space_group_IT_number       1

loop_
  _space_group_symop_operation_xyz
  'x, y, z'

loop_
  _atom_site_type_symbol
  _atom_site_label
  _atom_site_symmetry_multiplicity
  _atom_site_fract_x
  _atom_site_fract_y
  _atom_site_fract_z
  _atom_site_occupancy
  H   H1        1.0  0.4674850305309519  0.0191578398225829  0.7642568887677044  1.0000
  H   H2        1.0  0.12321867782156914  0.4651421441230923  0.17180216417182237  1.0000
  H   H3        1.0  0.5609345624106936  0.9205469111329876  0.39903708081692457  1.0000
  H   H4        1.0  0.18091265461407602  0.7014591073384508  0.8632589597254992  1.0000
  H   H5        1.0  0.6474713062634692  0.20509786647744477  0.6843882836401463  1.0000
  H   H6        1.0  0.8792531890794635  0.2011606227606535  0.3494545426219702  1.0000
  H   H7        1.0  0.5965016828849912  0.560798438731581  0.9512721486389637  1.0000
  H   H8        1.0  0.7332518313196488  0.0998526862822473  0.216142556455452  1.0000
  H   H9        1.0  0.6650703679770231  0.15801572729833424  0.9702080695424229  1.0000
  H   H10       1.0  0.5019303928711452  0.34142444288590923  0.3753320490795886  1.0000
  H   H11       1.0  0.6105397287756205  0.3807078618556261  0.6622411133721471  1.0000
  H   H12       1.0  0.19424098066519946  0.37840695423074067  0.566050504159648  1.0000
  H   H13       1.0  0.7523987370659597  0.9639137323829345  0.12654308578930795  1.0000
  H   H14       1.0  0.4582805101526901  0.6964389667846262  0.4441080775577575  1.0000
  H   H15       1.0  0.6200008555315435  0.27731311204843223  0.6574639097088948  1.0000
  H   H16       1.0  0.8911471834871918  0.8001481024548411  0.12439572933362797  1.0000
  S   S1        1.0  0.3944258789124433  0.4661936177581083  0.3838011881452985  1.0000
  S   S2        1.0  0.4443769604549743  0.6390528479823843  0.5916563022183254  1.0000
  S   S3        1.0  0.18500667612534016  0.45930522721027955  0.5378859133052174  1.0000
  S   S4        1.0  0.660245412029326  0.8163684124592692  0.20033424804569222  1.0000
  S   S5        1.0  0.4266272875247523  0.7319831967470236  0.8808953486441169  1.0000
  S   S6        1.0  0.6594213607022539  0.43531468462606426  0.3117833097348921  1.0000
  S   S7        1.0  0.8502783480507787  0.4597986729313561  0.10501621251751203  1.0000
  S   S8        1.0  0.9075166461407207  0.05559680663282052  0.8196345674805343  1.0000
data_image40
_chemical_formula_structural       H16S8
_chemical_formula_sum              "H16 S8"
_cell_length_a       8.83753075774048
_cell_length_b       8.83753075774048
_cell_length_c       8.83753075774048
_cell_angle_alpha    118.690318510586
_cell_angle_beta     118.69031851058598
_cell_angle_gamma    92.28380992055807

_space_group_name_H-M_alt    "P 1"
_space_group_IT_number       1

loop_
  _space_group_symop_operation_xyz
  'x, y, z'

loop_
  _atom_site_type_symbol
  _atom_site_label
  _atom_site_symmetry_multiplicity
  _atom_site_fract_x
  _atom_site_fract_y
  _atom_site_fract_z
  _atom_site_occupancy
  H   H1        1.0  0.847641920321621  0.1274379121387028  0.13168202829547226  1.0000
  H   H2        1.0  0.25546096940524876  0.014261879725381732  0.637386147165671  1.0000
  H   H3        1.0  0.18074751971289515  0.37435228808317333  0.48728001746349037  1.0000
  H   H4        1.0  0.34936832380481064  0.4828072622185573  0.9919014397310093  1.0000
  H   H5        1.0  0.24353117984719574  0.3707512767286971  0.8909918133867905  1.0000
  H   H6        1.0  0.8080331925302744  0.508039090782404  0.6335132736712694  1.0000
  H   H7        1.0  0.2619798691011965  0.14709129161201417  0.6835452737286687  1.0000
  H   H8        1.0  0.665654183307197  0.9466765366960317  0.27581376425223425  1.0000
  H   H9        1.0  0.2675648769363761  0.4121911753900349  0.11116057145409286  1.0000
  H   H10       1.0  0.6290466880018357  0.4707378832390532  0.35744274697935907  1.0000
  H   H11       1.0  0.2573962081223726  0.9074761245865375  0.15267246635630727  1.0000
  H   H12       1.0  0.4392730522667989  0.42464918189216405  0.6606852638651617  1.0000
  H   H13       1.0  0.4510418442077935  0.6474559849593788  0.8024031228851527  1.0000
  H   H14       1.0  0.13350778655149043  0.7395321142394096  0.8371518373023719  1.0000
  H   H15       1.0  0.021482737734913826  0.2208631730172783  0.3832986942725256  1.0000
  H   H16       1.0  0.4524810666916892  0.7855014607775956  0.49758760508848354  1.0000
  S   S1        1.0  0.41976843602606095  0.09782923743478023  0.6556209760019556  1.0000
  S   S2        1.0  0.7109500819278765  0.8789856566581875  0.09641709527932107  1.0000
  S   S3        1.0  0.05911370337707922  0.190527887432836  0.6242392934509553  1.0000
  S   S4        1.0  0.4066805692273192  0.802467725938186  0.2908531320572365  1.0000
  S   S5        1.0  0.5488932676962577  0.2870731920556864  0.7349707369648968  1.0000
  S   S6        1.0  0.5591491242521442  0.5198751658172114  0.859362987393979  1.0000
  S   S7        1.0  0.6931940872455016  0.11387678390383371  0.7459593195817433  1.0000
  S   S8        1.0  0.1642055815027561  0.7308891146676615  0.39136244886321947  1.0000
data_image41
_chemical_formula_structural       H16S8
_chemical_formula_sum              "H16 S8"
_cell_length_a       8.83753075774048
_cell_length_b       8.83753075774048
_cell_length_c       8.83753075774048
_cell_angle_alpha    118.690318510586
_cell_angle_beta     118.69031851058598
_cell_angle_gamma    92.28380992055807

_space_group_name_H-M_alt    "P 1"
_space_group_IT_number       1

loop_
  _space_group_symop_operation_xyz
  'x, y, z'

loop_
  _atom_site_type_symbol
  _atom_site_label
  _atom_site_symmetry_multiplicity
  _atom_site_fract_x
  _atom_site_fract_y
  _atom_site_fract_z
  _atom_site_occupancy
  H   H1        1.0  0.8743120348080993  0.03281175211304799  0.20625517307780683  1.0000
  H   H2        1.0  0.9462753320112824  0.6094726249575615  0.06378247612155974  1.0000
  H   H3        1.0  0.9108319983788533  0.49847156775649637  0.67950509628281  1.0000
  H   H4        1.0  0.3096869543660432  0.17798904614755884  0.4518993045203388  1.0000
  H   H5        1.0  0.8550756202312186  0.842131883953698  0.589989998145029  1.0000
  H   H6        1.0  0.5089952852576971  0.55998888425529  0.6383719183504581  1.0000
  H   H7        1.0  0.935202113352716  0.6215103529393673  0.6675062077119946  1.0000
  H   H8        1.0  0.45981260522967204  0.99302768567577  0.6461422585998662  1.0000
  H   H9        1.0  0.8611950711347163  0.470705978164915  0.12913264194503427  1.0000
  H   H10       1.0  0.9324670334754046  0.9359302308876067  0.14032245648559183  1.0000
  H   H11       1.0  0.34035047166980803  0.652800875948742  0.8002550303936005  1.0000
  H   H12       1.0  0.7033748959656805  0.04740129364654422  0.18070606258697808  1.0000
  H   H13       1.0  0.7510776129784063  0.9259087429381907  0.7154898723820224  1.0000
  H   H14       1.0  0.008522711927071214  0.4184112590737641  0.8519792966544628  1.0000
  H   H15       1.0  0.6316770417615771  0.26775486557744443  0.1444691768847406  1.0000
  H   H16       1.0  0.6715224114013836  0.26705367083195597  0.5296290626283735  1.0000
  S   S1        1.0  0.2419558973342646  0.7276689587160945  0.35916020401054993  1.0000
  S   S2        1.0  0.38847140211146325  0.9757629064843059  0.7201956465942203  1.0000
  S   S3        1.0  0.6128389555087779  0.1923730332055129  0.4633011617406737  1.0000
  S   S4        1.0  0.26269795652478933  0.1571827366715297  0.6808268825116102  1.0000
  S   S5        1.0  0.47114119288744405  0.9011222789704334  0.9345205171994166  1.0000
  S   S6        1.0  0.3466234922816511  0.6763241985318018  0.15135056897997856  1.0000
  S   S7        1.0  0.07909118922543712  0.8801857092803402  0.02676412714936305  1.0000
  S   S8        1.0  0.5497720008715987  0.3305551409139298  0.19356249261181802  1.0000
data_image42
_chemical_formula_structural       H16S8
_chemical_formula_sum              "H16 S8"
_cell_length_a       8.83753075774048
_cell_length_b       8.83753075774048
_cell_length_c       8.83753075774048
_cell_angle_alpha    118.690318510586
_cell_angle_beta     118.69031851058598
_cell_angle_gamma    92.28380992055807

_space_group_name_H-M_alt    "P 1"
_space_group_IT_number       1

loop_
  _space_group_symop_operation_xyz
  'x, y, z'

loop_
  _atom_site_type_symbol
  _atom_site_label
  _atom_site_symmetry_multiplicity
  _atom_site_fract_x
  _atom_site_fract_y
  _atom_site_fract_z
  _atom_site_occupancy
  H   H1        1.0  0.3778574023162946  0.5908770681126043  0.8680313513614237  1.0000
  H   H2        1.0  0.235501425457187  0.6874240860342979  0.7571993991732597  1.0000
  H   H3        1.0  0.5852307327149902  0.4827402119990438  0.7114516629371792  1.0000
  H   H4        1.0  0.9238999302033335  0.14419294917024672  0.6586144036846235  1.0000
  H   H5        1.0  0.30083966854726896  0.5301198323722929  0.21449263370595872  1.0000
  H   H6        1.0  0.17536109499633312  0.3897740989923477  0.9628778547048569  1.0000
  H   H7        1.0  0.40292729530483484  0.7377848469186574  0.9781129499897361  1.0000
  H   H8        1.0  0.46335052023641765  0.06117618177086115  0.16177713868091814  1.0000
  H   H9        1.0  0.2809374378994107  0.2677903262374457  0.7671177696902305  1.0000
  H   H10       1.0  0.13505801412975416  0.23224810883402824  0.5705126392422244  1.0000
  H   H11       1.0  0.8632659541908652  0.3065380319021642  0.9917631461285055  1.0000
  H   H12       1.0  0.40700320922769606  0.3321560095064342  0.870244262041524  1.0000
  H   H13       1.0  0.2845802701776847  0.2652731719426811  0.33569199428893626  1.0000
  H   H14       1.0  0.48560552834533155  0.8573480527848005  0.3127298690378666  1.0000
  H   H15       1.0  0.18576113833114505  0.9841816049301997  0.3520712867612019  1.0000
  H   H16       1.0  0.7769261472858489  0.37527225678786635  0.7167143794940785  1.0000
  S   S1        1.0  0.3677780324796913  0.5361629390099552  0.8680177165661007  1.0000
  S   S2        1.0  0.28784996749891434  0.9223404148360714  0.5604288463146077  1.0000
  S   S3        1.0  0.5319872820400633  0.15461167684406973  0.9305108069092967  1.0000
  S   S4        1.0  0.48741349682677537  0.619505651993677  0.5742983822128735  1.0000
  S   S5        1.0  0.2021183002507314  0.11172625460312702  0.5984960082350881  1.0000
  S   S6        1.0  0.9306629507336766  0.8627311543968972  0.31190875262836926  1.0000
  S   S7        1.0  0.23818508189287968  0.6948432074968878  0.7231867777300067  1.0000
  S   S8        1.0  0.3766024472133722  0.18137110507814214  0.2727220849774312  1.0000
data_image43
_chemical_formula_structural       H16S8
_chemical_formula_sum              "H16 S8"
_cell_length_a       8.83753075774048
_cell_length_b       8.83753075774048
_cell_length_c       8.83753075774048
_cell_angle_alpha    118.690318510586
_cell_angle_beta     118.69031851058598
_cell_angle_gamma    92.28380992055807

_space_group_name_H-M_alt    "P 1"
_space_group_IT_number       1

loop_
  _space_group_symop_operation_xyz
  'x, y, z'

loop_
  _atom_site_type_symbol
  _atom_site_label
  _atom_site_symmetry_multiplicity
  _atom_site_fract_x
  _atom_site_fract_y
  _atom_site_fract_z
  _atom_site_occupancy
  H   H1        1.0  0.34235660557169467  0.6223844242595078  0.091932657873258  1.0000
  H   H2        1.0  0.9208412584848702  0.4394441177137196  0.9347082013264298  1.0000
  H   H3        1.0  0.2173507037005038  0.14912391908001155  0.6265666708350182  1.0000
  H   H4        1.0  0.3818065084051341  0.5770456263562664  0.6636659250070807  1.0000
  H   H5        1.0  0.47476239217212424  0.8390402756631374  0.7876687024254352  1.0000
  H   H6        1.0  0.7562094833701849  0.10227720811963081  0.7057908736169338  1.0000
  H   H7        1.0  0.49773020716384053  0.8694223063066602  0.11444585490971804  1.0000
  H   H8        1.0  0.5246285342727788  0.7661270406097174  0.5442571634484921  1.0000
  H   H9        1.0  0.3723423373885453  0.6029964823974296  0.24658297817222774  1.0000
  H   H10       1.0  0.22980646567884833  0.7422008847352117  0.39000093552749604  1.0000
  H   H11       1.0  0.5535676705185324  0.1532889713998884  0.8693671068176627  1.0000
  H   H12       1.0  0.6225070508662611  0.8033135584555566  0.20867238892242312  1.0000
  H   H13       1.0  0.9456678436836228  0.8648091190261766  0.2722548709716648  1.0000
  H   H14       1.0  0.9304679257329553  0.3012068881653249  0.9973055198788643  1.0000
  H   H15       1.0  0.18568147951737046  0.0930548922624439  0.426958822296001  1.0000
  H   H16       1.0  0.9239011247409508  0.27879844803828746  0.10612625535577536  1.0000
  S   S1        1.0  0.3049385438498575  0.36170559740276076  0.264691112737637  1.0000
  S   S2        1.0  0.12878729314252269  0.6708945685531944  0.4146888998657232  1.0000
  S   S3        1.0  0.5297276482160669  0.3462154616281623  0.7992532926145941  1.0000
  S   S4        1.0  0.6775911460863426  0.005374208325520158  0.3211981228669174  1.0000
  S   S5        1.0  0.24969227815745398  0.35055072615796234  0.21596600064367522  1.0000
  S   S6        1.0  0.2521120520832483  0.5048647458897904  0.7726801045937464  1.0000
  S   S7        1.0  0.2921052705787588  0.8172041433790582  0.7272089768084697  1.0000
  S   S8        1.0  0.7430966441461351  0.8214504164061509  0.01270070212194696  1.0000
data_image44
_chemical_formula_structural       H16S8
_chemical_formula_sum              "H16 S8"
_cell_length_a       8.83753075774048
_cell_length_b       8.83753075774048
_cell_length_c       8.83753075774048
_cell_angle_alpha    118.690318510586
_cell_angle_beta     118.69031851058598
_cell_angle_gamma    92.28380992055807

_space_group_name_H-M_alt    "P 1"
_space_group_IT_number       1

loop_
  _space_group_symop_operation_xyz
  'x, y, z'

loop_
  _atom_site_type_symbol
  _atom_site_label
  _atom_site_symmetry_multiplicity
  _atom_site_fract_x
  _atom_site_fract_y
  _atom_site_fract_z
  _atom_site_occupancy
  H   H1        1.0  0.7825946980156004  0.58593219832062  0.4497466564644128  1.0000
  H   H2        1.0  0.47678972966969013  0.2803703078534454  0.8228336819447577  1.0000
  H   H3        1.0  0.9268294288121979  0.07945052266586572  0.004752365173771977  1.0000
  H   H4        1.0  0.5445407843217254  0.04554021981311962  0.7847273605002556  1.0000
  H   H5        1.0  0.6567424066597596  0.2306398826185614  0.6709482548758388  1.0000
  H   H6        1.0  0.09165054373443127  0.9586761854588985  0.7153042070567608  1.0000
  H   H7        1.0  0.46696347557008266  0.0482105715200305  0.8257421590387821  1.0000
  H   H8        1.0  0.14321380635374226  0.1927983902860433  0.4338202424987685  1.0000
  H   H9        1.0  0.7523535354994237  0.13244504967588  0.646573284175247  1.0000
  H   H10       1.0  0.7576961336890236  0.47801153315231204  0.4541131922742352  1.0000
  H   H11       1.0  0.7185268336907029  0.06266368832439184  0.383580825291574  1.0000
  H   H12       1.0  0.938672557938844  0.7563420459628105  0.31255296571180224  1.0000
  H   H13       1.0  0.6430201643379405  0.2803477980196476  0.3140849666669965  1.0000
  H   H14       1.0  0.3065273594111204  0.5148486788384616  0.7401881506666541  1.0000
  H   H15       1.0  0.6820867960341275  0.7696212423034012  0.7800291762687266  1.0000
  H   H16       1.0  0.694128776434809  0.3239791813539341  0.01371955603826791  1.0000
  S   S1        1.0  0.966692937843618  0.40240008902037516  0.009409043123014271  1.0000
  S   S2        1.0  0.19278018771728966  0.5707483103033155  0.45401082864555065  1.0000
  S   S3        1.0  0.24346831650473177  0.5671512457338395  0.6156507561390754  1.0000
  S   S4        1.0  0.0498597010737285  0.7126483325846493  0.7434151388297323  1.0000
  S   S5        1.0  0.06475643231533468  0.7386621657497017  0.17636152821069118  1.0000
  S   S6        1.0  0.35740987764438614  0.4487034108606167  0.8301986737060361  1.0000
  S   S7        1.0  0.28785029346181545  0.14815267775702523  0.3660136184771545  1.0000
  S   S8        1.0  0.84265502972994  0.7021775111206807  0.7935156145540532  1.0000
data_image45
_chemical_formula_structural       H16S8
_chemical_formula_sum              "H16 S8"
_cell_length_a       8.83753075774048
_cell_length_b       8.83753075774048
_cell_length_c       8.83753075774048
_cell_angle_alpha    118.690318510586
_cell_angle_beta     118.69031851058598
_cell_angle_gamma    92.28380992055807

_space_group_name_H-M_alt    "P 1"
_space_group_IT_number       1

loop_
  _space_group_symop_operation_xyz
  'x, y, z'

loop_
  _atom_site_type_symbol
  _atom_site_label
  _atom_site_symmetry_multiplicity
  _atom_site_fract_x
  _atom_site_fract_y
  _atom_site_fract_z
  _atom_site_occupancy
  H   H1        1.0  0.5595039569307119  0.7952258302047994  0.9651398765854537  1.0000
  H   H2        1.0  0.03337428148370236  0.9356840455438942  0.3583543902495876  1.0000
  H   H3        1.0  0.027760622062487528  0.7788465878693387  0.7468378923367709  1.0000
  H   H4        1.0  0.9539221951272339  0.08264623448485509  0.668149639168405  1.0000
  H   H5        1.0  0.3735145687824115  0.6389735486591235  0.9007962865289301  1.0000
  H   H6        1.0  0.6467636143788695  0.3961503617465496  0.33982823602855206  1.0000
  H   H7        1.0  0.6338039189577103  0.3266548758838326  0.6487201526761055  1.0000
  H   H8        1.0  0.45410084491595626  0.8122773095965385  0.4835026508953888  1.0000
  H   H9        1.0  0.4259968991391361  0.389740663144039  0.7571704839356244  1.0000
  H   H10       1.0  0.12901137192966416  0.9059279889333993  0.992855875636451  1.0000
  H   H11       1.0  0.5035209686029702  0.6376953173894435  0.7883482011966407  1.0000
  H   H12       1.0  0.26682053646072745  0.3837057426571846  0.42989841708913445  1.0000
  H   H13       1.0  0.35827534832060337  0.36255084769800305  0.4268550726119429  1.0000
  H   H14       1.0  0.4604815097991377  0.6334369066171348  0.3170142350718379  1.0000
  H   H15       1.0  0.8238579099997878  0.8791131360922009  0.4400888063246384  1.0000
  H   H16       1.0  0.12373915431089699  0.5492080186959356  0.9265690029133111  1.0000
  S   S1        1.0  0.1668597138777841  0.9149900743796024  0.02538010524585843  1.0000
  S   S2        1.0  0.9826878762978595  0.8033293217886239  0.5732439446728677  1.0000
  S   S3        1.0  0.6679949595272774  0.17298414453398436  0.0468303844681941  1.0000
  S   S4        1.0  0.9151535735582002  0.00404483696911484  0.4852632908441592  1.0000
  S   S5        1.0  0.22240419866284356  0.003849266839097254  0.02188351385120768  1.0000
  S   S6        1.0  0.2329351351945661  0.1358031197305536  0.7173654161742888  1.0000
  S   S7        1.0  0.7041902942437446  0.5006579624969163  0.4101135575765511  1.0000
  S   S8        1.0  0.9396962254832033  0.040594293852336705  0.06360267187119462  1.0000
data_image46
_chemical_formula_structural       H16S8
_chemical_formula_sum              "H16 S8"
_cell_length_a       8.83753075774048
_cell_length_b       8.83753075774048
_cell_length_c       8.83753075774048
_cell_angle_alpha    118.690318510586
_cell_angle_beta     118.69031851058598
_cell_angle_gamma    92.28380992055807

_space_group_name_H-M_alt    "P 1"
_space_group_IT_number       1

loop_
  _space_group_symop_operation_xyz
  'x, y, z'

loop_
  _atom_site_type_symbol
  _atom_site_label
  _atom_site_symmetry_multiplicity
  _atom_site_fract_x
  _atom_site_fract_y
  _atom_site_fract_z
  _atom_site_occupancy
  H   H1        1.0  0.3755721969064325  0.12451815975873615  0.8098932935390621  1.0000
  H   H2        1.0  0.12569463369436562  0.6489622453227639  0.0941919342149049  1.0000
  H   H3        1.0  0.6704189211523044  0.561644121306017  0.6506873422767967  1.0000
  H   H4        1.0  0.8975124198477715  0.24973505054367706  0.8441693372151349  1.0000
  H   H5        1.0  0.8822971659246832  0.3655744332354516  0.4953147596679628  1.0000
  H   H6        1.0  0.4015152882784605  0.18216977454721928  0.9213206637650728  1.0000
  H   H7        1.0  0.6654693568125367  0.4224945984315127  0.0517753716558218  1.0000
  H   H8        1.0  0.9502933191834018  0.2979679089039564  0.22786728799110278  1.0000
  H   H9        1.0  0.8851909590885043  0.438022348243976  0.7552335034124553  1.0000
  H   H10       1.0  0.7165469619358191  0.209097737679258  0.5800637335050851  1.0000
  H   H11       1.0  0.5513430489227176  0.8405530718155205  0.6329800277017057  1.0000
  H   H12       1.0  0.3941771541722119  0.4101575091481209  0.30971826845780015  1.0000
  H   H13       1.0  0.7111178686609492  0.22909038281068206  0.25781156471930444  1.0000
  H   H14       1.0  0.23805361916311085  0.2845866181887686  0.5093263383023441  1.0000
  H   H15       1.0  0.08645704202353954  0.6581827068002895  0.20766756939701736  1.0000
  H   H16       1.0  0.2769565770868212  0.5397335573798046  0.6607728101080284  1.0000
  S   S1        1.0  0.6254921701911371  0.05520736851030961  0.38235487969359383  1.0000
  S   S2        1.0  0.5199396723910468  0.4793090419843793  0.8255635533714667  1.0000
  S   S3        1.0  0.16283779880905058  0.12534083738864865  0.5241956497193314  1.0000
  S   S4        1.0  0.4226612437632866  0.39435916347429156  0.5425540897995234  1.0000
  S   S5        1.0  0.9365013571223244  0.23637895846331958  0.1643082510563545  1.0000
  S   S6        1.0  0.6858520953683183  0.6738023036741652  0.20618112609372474  1.0000
  S   S7        1.0  0.7483187837569858  0.15647907358652446  0.05353051425481681  1.0000
  S   S8        1.0  0.0414065731165465  0.4778594779781997  0.42483615019591525  1.0000
data_image47
_chemical_formula_structural       H16S8
_chemical_formula_sum              "H16 S8"
_cell_length_a       8.83753075774048
_cell_length_b       8.83753075774048
_cell_length_c       8.83753075774048
_cell_angle_alpha    118.690318510586
_cell_angle_beta     118.69031851058598
_cell_angle_gamma    92.28380992055807

_space_group_name_H-M_alt    "P 1"
_space_group_IT_number       1

loop_
  _space_group_symop_operation_xyz
  'x, y, z'

loop_
  _atom_site_type_symbol
  _atom_site_label
  _atom_site_symmetry_multiplicity
  _atom_site_fract_x
  _atom_site_fract_y
  _atom_site_fract_z
  _atom_site_occupancy
  H   H1        1.0  0.831321815494448  0.8730917003631475  0.8182873246259987  1.0000
  H   H2        1.0  0.7900793016888201  0.4479051763191819  0.5829799163620919  1.0000
  H   H3        1.0  0.5358037821424659  0.6581124108051881  0.27627926343120635  1.0000
  H   H4        1.0  0.9823177475482225  0.6109787708264776  0.5673148579517147  1.0000
  H   H5        1.0  0.5980177741148509  0.7052817246876657  0.5322268896270543  1.0000
  H   H6        1.0  0.4963679378852248  0.4272782001644373  0.7104413826018572  1.0000
  H   H7        1.0  0.4558021314442158  0.039841400226578116  0.6240000585094094  1.0000
  H   H8        1.0  0.95306750034797  0.6663037014659494  0.19716534251347184  1.0000
  H   H9        1.0  0.5902303752955049  0.5901427460485138  0.22534536197781563  1.0000
  H   H10       1.0  0.6277360895473976  0.772747898939997  0.08646588487317786  1.0000
  H   H11       1.0  0.3771712624002248  0.5679302322678268  0.4708837172947824  1.0000
  H   H12       1.0  0.7071676440536976  0.27629477996379137  0.17674337746575475  1.0000
  H   H13       1.0  0.528605958679691  0.5684182358672842  0.9229784922208637  1.0000
  H   H14       1.0  0.38047788268886507  0.9879891257733107  0.1992784384638071  1.0000
  H   H15       1.0  0.2258758065290749  0.06286837824154645  0.09320668526925147  1.0000
  H   H16       1.0  0.3947694774251431  0.4165407622931525  0.849089426570572  1.0000
  S   S1        1.0  0.28037486487301067  0.6944293190608732  0.6669294309103861  1.0000
  S   S2        1.0  0.4612495969340671  0.6992474349681288  0.7257002245169133  1.0000
  S   S3        1.0  0.9523720172292087  0.2635695958742872  0.4368064417212736  1.0000
  S   S4        1.0  0.385840990813449  0.280628033564426  0.5604532664292492  1.0000
  S   S5        1.0  0.6478242243174464  0.18918485043104738  0.6361675718217157  1.0000
  S   S6        1.0  0.26891762102604844  0.5490058044233592  0.8510268163518049  1.0000
  S   S7        1.0  0.19908520728495205  0.15904691271862248  0.3244143937554327  1.0000
  S   S8        1.0  0.33574301563203335  0.44523512723390013  0.34436379952239804  1.0000
data_image48
_chemical_formula_structural       H16S8
_chemical_formula_sum              "H16 S8"
_cell_length_a       8.83753075774048
_cell_length_b       8.83753075774048
_cell_length_c       8.83753075774048
_cell_angle_alpha    118.690318510586
_cell_angle_beta     118.69031851058598
_cell_angle_gamma    92.28380992055807

_space_group_name_H-M_alt    "P 1"
_space_group_IT_number       1

loop_
  _space_group_symop_operation_xyz
  'x, y, z'

loop_
  _atom_site_type_symbol
  _atom_site_label
  _atom_site_symmetry_multiplicity
  _atom_site_fract_x
  _atom_site_fract_y
  _atom_site_fract_z
  _atom_site_occupancy
  H   H1        1.0  0.355238881893456  0.02759127524041105  0.9699049268383533  1.0000
  H   H2        1.0  0.30750717734918  0.6704234860371798  0.7065310332691297  1.0000
  H   H3        1.0  0.5505416700325441  0.7072414256399497  0.3572851726785302  1.0000
  H   H4        1.0  0.19894618436228484  0.4805816059524659  0.9202177800034406  1.0000
  H   H5        1.0  0.38521414386923425  0.420356442919001  0.8055175845511258  1.0000
  H   H6        1.0  0.18781752604991198  0.9944951366633177  0.10616952739655972  1.0000
  H   H7        1.0  0.17604207806289196  0.24799490068107843  0.23300761077553034  1.0000
  H   H8        1.0  0.7226090964395553  0.2352597056888044  0.5883991004375275  1.0000
  H   H9        1.0  0.3453836333937943  0.19149858970195055  0.6219379967078567  1.0000
  H   H10       1.0  0.9369210180884693  0.18254311638884246  0.512145028274972  1.0000
  H   H11       1.0  0.1568439986294834  0.793764891801402  0.14029725780710578  1.0000
  H   H12       1.0  0.63222297700122  0.2227877276018262  0.6093264687806368  1.0000
  H   H13       1.0  0.24777897726744413  0.5323360566981137  0.9515483360737562  1.0000
  H   H14       1.0  0.435670628445223  0.8819701969623566  0.1265667648985982  1.0000
  H   H15       1.0  0.22411778569221497  0.7139280872652307  0.2703481747303158  1.0000
  H   H16       1.0  0.2355846632272005  0.5935433910926804  0.10501128563191742  1.0000
  S   S1        1.0  0.20618595770793036  0.21818228866322897  0.6155025550397113  1.0000
  S   S2        1.0  0.3400314979808172  0.5316954063018784  0.5858265574643156  1.0000
  S   S3        1.0  0.40972868115932215  0.4958194517821539  0.714069146401016  1.0000
  S   S4        1.0  0.5765755721949972  0.6706656267633662  0.2717713701422326  1.0000
  S   S5        1.0  0.03022998495725915  0.0514742920640856  0.7354266500042286  1.0000
  S   S6        1.0  0.6326878902036697  0.3618527356593404  0.935399807873182  1.0000
  S   S7        1.0  0.7401349376259532  0.20178913550262223  0.471984454045014  1.0000
  S   S8        1.0  0.838530647160951  0.6591505450196564  0.3998813765065279  1.0000
data_image49
_chemical_formula_structural       H16S8
_chemical_formula_sum              "H16 S8"
_cell_length_a       8.83753075774048
_cell_length_b       8.83753075774048
_cell_length_c       8.83753075774048
_cell_angle_alpha    118.690318510586
_cell_angle_beta     118.69031851058598
_cell_angle_gamma    92.28380992055807

_space_group_name_H-M_alt    "P 1"
_space_group_IT_number       1

loop_
  _space_group_symop_operation_xyz
  'x, y, z'

loop_
  _atom_site_type_symbol
  _atom_site_label
  _atom_site_symmetry_multiplicity
  _atom_site_fract_x
  _atom_site_fract_y
  _atom_site_fract_z
  _atom_site_occupancy
  H   H1        1.0  0.24255654658190906  0.2892271011696721  0.39105498185381293  1.0000
  H   H2        1.0  0.6816803123801947  0.1776412392500788  0.32815149624366313  1.0000
  H   H3        1.0  0.8727303825507988  0.4581704108277336  0.25004883646033704  1.0000
  H   H4        1.0  0.16236225503962487  0.3064418655121699  0.203982822567923  1.0000
  H   H5        1.0  0.9853162846702617  0.6766442437656224  0.04024810343980789  1.0000
  H   H6        1.0  0.6167732896283269  0.617122819647193  0.4388261642307043  1.0000
  H   H7        1.0  0.2751414440572262  0.7614787330385298  0.44746437668800354  1.0000
  H   H8        1.0  0.3269768837490119  0.6152911791577935  0.18256420068792067  1.0000
  H   H9        1.0  0.9631057581864297  0.45095728302840143  0.2817639063578099  1.0000
  H   H10       1.0  0.6689686339523178  0.6228560029994696  0.1921123000793159  1.0000
  H   H11       1.0  0.047323509119451046  0.7383956934791058  0.7376952483318746  1.0000
  H   H12       1.0  0.5125690698623657  0.31713073002174497  0.10107452608644962  1.0000
  H   H13       1.0  0.8661788499448448  0.26702303148340434  0.8683283287100494  1.0000
  H   H14       1.0  0.02265698229894042  0.8871657229028642  0.6621164409443736  1.0000
  H   H15       1.0  0.849838949739933  0.6215635752305388  0.34203917370177805  1.0000
  H   H16       1.0  0.17519947490654886  0.8428535705897957  0.2334928885102272  1.0000
  S   S1        1.0  0.5945736970170401  0.5280315323616378  0.9974280965980142  1.0000
  S   S2        1.0  0.14706720235699322  0.8914547872263938  0.3072255374281667  1.0000
  S   S3        1.0  0.18319288388011046  0.9181238373275846  0.6265210876881611  1.0000
  S   S4        1.0  0.681265689607244  0.5790042781736702  0.08198688211268745  1.0000
  S   S5        1.0  0.7608695339877158  0.9336107679991983  0.4725195270439144  1.0000
  S   S6        1.0  0.14528282271930948  0.734173777003889  0.34037332178559154  1.0000
  S   S7        1.0  0.19393864889570978  0.9299567117923289  0.3332879478839459  1.0000
  S   S8        1.0  0.4485447240876965  0.8853656920255162  0.8096001022786368  1.0000
data_image50
_chemical_formula_structural       H16S8
_chemical_formula_sum              "H16 S8"
_cell_length_a       8.83753075774048
_cell_length_b       8.83753075774048
_cell_length_c       8.83753075774048
_cell_angle_alpha    118.690318510586
_cell_angle_beta     118.69031851058598
_cell_angle_gamma    92.28380992055807

_space_group_name_H-M_alt    "P 1"
_space_group_IT_number       1

loop_
  _space_group_symop_operation_xyz
  'x, y, z'

loop_
  _atom_site_type_symbol
  _atom_site_label
  _atom_site_symmetry_multiplicity
  _atom_site_fract_x
  _atom_site_fract_y
  _atom_site_fract_z
  _atom_site_occupancy
  H   H1        1.0  0.8117299450095743  0.6189884437153523  0.17253862973302603  1.0000
  H   H2        1.0  0.6648486717604101  0.9554172269999981  0.9321541022509336  1.0000
  H   H3        1.0  0.5828985060652485  0.5517848569434136  0.4236492102500051  1.0000
  H   H4        1.0  0.16589485201984644  0.8279380376916379  0.011402359334169887  1.0000
  H   H5        1.0  0.7487091943912674  0.8567185924621299  0.37362340674735606  1.0000
  H   H6        1.0  0.06608767714351416  0.06755091436207294  0.5105811022222042  1.0000
  H   H7        1.0  0.5107535403221846  0.3944180633407086  0.8895132690668106  1.0000
  H   H8        1.0  0.6498680656368379  0.9203895141836256  0.15618873288622126  1.0000
  H   H9        1.0  0.0421725120395422  0.20042025612201542  0.09813327947631478  1.0000
  H   H10       1.0  0.08892545363050885  0.31037373444996774  0.8781878866720945  1.0000
  H   H11       1.0  0.5288682554382831  0.8290729767177254  0.8498717057518661  1.0000
  H   H12       1.0  0.05304047558456659  0.3926103115081787  0.06847838312387466  1.0000
  H   H13       1.0  0.5544707113876939  0.27426877233665437  0.32880221819505095  1.0000
  H   H14       1.0  0.9731368473730981  0.7673474329058081  0.803015090059489  1.0000
  H   H15       1.0  0.5316861062310636  0.4913970212219283  0.06935930158942938  1.0000
  H   H16       1.0  0.22482631052844226  0.328789803897962  0.5467424367088825  1.0000
  S   S1        1.0  0.10294035577680916  0.4702451112680137  0.03759889991488308  1.0000
  S   S2        1.0  0.4831524117325898  0.07044087280519307  0.2298125973320566  1.0000
  S   S3        1.0  0.46546933565696236  0.5005575902760029  0.7871172103623394  1.0000
  S   S4        1.0  0.4973883985658176  0.8027730968315154  0.950331863889005  1.0000
  S   S5        1.0  0.026364208257291466  0.9153218172141351  0.6967782678257208  1.0000
  S   S6        1.0  0.8472527639241889  0.25429622254159767  0.6280349043372553  1.0000
  S   S7        1.0  0.4928270908567356  0.38553707515848146  0.056438931060256436  1.0000
  S   S8        1.0  0.08362341797328554  0.911087904474698  0.4308149360876996  1.0000
data_image51
_chemical_formula_structural       H16S8
_chemical_formula_sum              "H16 S8"
_cell_length_a       8.83753075774048
_cell_length_b       8.83753075774048
_cell_length_c       8.83753075774048
_cell_angle_alpha    118.690318510586
_cell_angle_beta     118.69031851058598
_cell_angle_gamma    92.28380992055807

_space_group_name_H-M_alt    "P 1"
_space_group_IT_number       1

loop_
  _space_group_symop_operation_xyz
  'x, y, z'

loop_
  _atom_site_type_symbol
  _atom_site_label
  _atom_site_symmetry_multiplicity
  _atom_site_fract_x
  _atom_site_fract_y
  _atom_site_fract_z
  _atom_site_occupancy
  H   H1        1.0  0.8238256915938109  0.9273512375875725  0.4964076962787658  1.0000
  H   H2        1.0  0.6618327377364039  0.4404227884951979  0.2015528588090092  1.0000
  H   H3        1.0  0.9700873834372032  0.3528841893421486  0.09858885291032493  1.0000
  H   H4        1.0  0.09519704733975232  0.379504737444222  0.3029863666888559  1.0000
  H   H5        1.0  0.5864505896170158  0.27216723014134914  0.6392758162692189  1.0000
  H   H6        1.0  0.9063832722604275  0.9946429710835218  0.6901596877723932  1.0000
  H   H7        1.0  0.7264927057549357  0.13460599188692868  0.44413050077855587  1.0000
  H   H8        1.0  0.45158364716917276  0.6002683029510081  0.6643797211145284  1.0000
  H   H9        1.0  0.6966462922282517  0.2943179058493115  0.27682610834017396  1.0000
  H   H10       1.0  0.8341589474293869  0.7877761360723525  0.28067281941184774  1.0000
  H   H11       1.0  0.8218443803489208  0.37328297592466697  0.9087985237129033  1.0000
  H   H12       1.0  0.1830682293511927  0.5831396975554526  0.6993113374337554  1.0000
  H   H13       1.0  0.9917923184111714  0.9340348517289385  0.13043092214502394  1.0000
  H   H14       1.0  0.7563465368002653  0.34475831873714924  0.3756484645418823  1.0000
  H   H15       1.0  0.025622338987886906  0.47050047817174345  0.5763998955953866  1.0000
  H   H16       1.0  0.7146736355498433  0.3673849329352379  0.2619103282922879  1.0000
  S   S1        1.0  0.6411777657340281  0.5194690197822638  0.8584015147062019  1.0000
  S   S2        1.0  0.05648482622927986  0.7131911651231349  0.9826803700925666  1.0000
  S   S3        1.0  0.7822749054175802  0.37118937537888996  0.07335681995027699  1.0000
  S   S4        1.0  0.2967851507710293  0.7486117822118104  0.05272528517525643  1.0000
  S   S5        1.0  0.25364387716399506  0.8454176499508321  0.35117243736749515  1.0000
  S   S6        1.0  0.44869616188225336  0.2527778956282418  0.6674804096401203  1.0000
  S   S7        1.0  0.32424867976806127  0.39882864843275456  0.39531206391984597  1.0000
  S   S8        1.0  0.7192937981162686  0.9684650616254658  0.39056797698140144  1.0000
data_image52
_chemical_formula_structural       H16S8
_chemical_formula_sum              "H16 S8"
_cell_length_a       8.83753075774048
_cell_length_b       8.83753075774048
_cell_length_c       8.83753075774048
_cell_angle_alpha    118.690318510586
_cell_angle_beta     118.69031851058598
_cell_angle_gamma    92.28380992055807

_space_group_name_H-M_alt    "P 1"
_space_group_IT_number       1

loop_
  _space_group_symop_operation_xyz
  'x, y, z'

loop_
  _atom_site_type_symbol
  _atom_site_label
  _atom_site_symmetry_multiplicity
  _atom_site_fract_x
  _atom_site_fract_y
  _atom_site_fract_z
  _atom_site_occupancy
  H   H1        1.0  0.9913398234639317  0.13647256939293584  0.9483283730223775  1.0000
  H   H2        1.0  0.34676152013707906  0.9330614707432687  0.4571250816807151  1.0000
  H   H3        1.0  0.3457294448162429  0.389808933599852  0.2648188204038888  1.0000
  H   H4        1.0  0.5900544180767611  0.127876692218706  0.4495572021987755  1.0000
  H   H5        1.0  0.2814226291375235  0.18119437072891742  0.7856391866225749  1.0000
  H   H6        1.0  0.9661229215562344  0.17808677814900875  0.3517378903925419  1.0000
  H   H7        1.0  0.2987189986743033  0.874640260823071  0.27102901926264167  1.0000
  H   H8        1.0  0.2258720090612769  0.12194043153431267  0.2109869841078762  1.0000
  H   H9        1.0  0.38980870600789785  0.12457103747874498  0.5889183722902089  1.0000
  H   H10       1.0  0.25867840336286463  0.44160250783897936  0.5588721137610264  1.0000
  H   H11       1.0  0.5340832511428744  0.356313425116241  0.2046960568986833  1.0000
  H   H12       1.0  0.2584292902611196  0.01189905684441328  0.47381930565461516  1.0000
  H   H13       1.0  0.681996033876203  0.5552415809361264  0.23131084023043513  1.0000
  H   H14       1.0  0.33488484821282327  0.6439801033120602  0.22896715020760894  1.0000
  H   H15       1.0  0.9523103754036129  0.5348078666720539  0.22127668396569788  1.0000
  H   H16       1.0  0.1993544443976134  0.3862125191371888  0.7934864123817533  1.0000
  S   S1        1.0  0.4860807128425222  0.05333476176019758  0.8819928447483107  1.0000
  S   S2        1.0  0.6897803540632594  0.4387806781451218  0.5095788066391833  1.0000
  S   S3        1.0  0.013977491020341404  0.5795615846000146  0.28007909483858384  1.0000
  S   S4        1.0  0.7679090652382001  0.21688466239720583  0.5037489425449166  1.0000
  S   S5        1.0  0.5643894113018177  0.20295174600323662  0.6851870392856654  1.0000
  S   S6        1.0  0.5004387156222947  0.12298386965994723  0.5974482142773923  1.0000
  S   S7        1.0  0.9234313888009638  0.2060907922204933  0.5678204504365567  1.0000
  S   S8        1.0  0.3391166474320926  0.3175382883637212  0.9925671297969529  1.0000
data_image53
_chemical_formula_structural       H16S8
_chemical_formula_sum              "H16 S8"
_cell_length_a       8.83753075774048
_cell_length_b       8.83753075774048
_cell_length_c       8.83753075774048
_cell_angle_alpha    118.690318510586
_cell_angle_beta     118.69031851058598
_cell_angle_gamma    92.28380992055807

_space_group_name_H-M_alt    "P 1"
_space_group_IT_number       1

loop_
  _space_group_symop_operation_xyz
  'x, y, z'

loop_
  _atom_site_type_symbol
  _atom_site_label
  _atom_site_symmetry_multiplicity
  _atom_site_fract_x
  _atom_site_fract_y
  _atom_site_fract_z
  _atom_site_occupancy
  H   H1        1.0  0.15124537027440965  0.5612514975837257  0.418408561963588  1.0000
  H   H2        1.0  0.5324512693332508  0.6828365321271122  0.4703732911730185  1.0000
  H   H3        1.0  0.49151493884346564  0.6770642874762416  0.4151885472238064  1.0000
  H   H4        1.0  0.9142391156638041  0.8914979582186788  0.4656735546159325  1.0000
  H   H5        1.0  0.14080887193472336  0.235849414835684  0.02996845729649067  1.0000
  H   H6        1.0  0.3301290702074766  0.4211627673357725  0.46309936232864857  1.0000
  H   H7        1.0  0.5083227613940835  0.34984996006824076  0.06441835686564445  1.0000
  H   H8        1.0  0.03538345219567418  0.10834780265577137  0.37422471471654717  1.0000
  H   H9        1.0  0.8558076773770154  0.9640801268687937  0.34856437984853983  1.0000
  H   H10       1.0  0.26019500553957187  0.05742263584397733  0.8196160300867632  1.0000
  H   H11       1.0  0.9970756929833442  0.7977148968493566  0.06534205842763186  1.0000
  H   H12       1.0  0.8887410745956004  0.8555699540302157  0.42105400655418634  1.0000
  H   H13       1.0  0.4760011882754043  0.8678803700022399  0.1840990763157606  1.0000
  H   H14       1.0  0.4596247309818864  0.182441302575171  0.5390188335441053  1.0000
  H   H15       1.0  0.7960026185028255  0.6777673203032464  0.22132061421871185  1.0000
  H   H16       1.0  0.9294205505866557  0.17204516613855958  0.5566242347704247  1.0000
  S   S1        1.0  0.1612710744375363  0.6388189076678827  0.3144567933632061  1.0000
  S   S2        1.0  0.3741174647002481  0.38025245000608265  0.1555035041528754  1.0000
  S   S3        1.0  0.9603361238259822  0.9563164524879539  0.14350606815423816  1.0000
  S   S4        1.0  0.6576693131937645  0.4003086086595431  0.7483205279277172  1.0000
  S   S5        1.0  0.43501782344537787  0.15678439958719537  0.3718449322041124  1.0000
  S   S6        1.0  0.052190099202562124  0.47791907891223673  0.7241338452149648  1.0000
  S   S7        1.0  0.4163129630032927  0.6147942600291572  0.8171990298142191  1.0000
  S   S8        1.0  0.46374657095293514  0.8333964815246873  0.3162194167380221  1.0000
data_image54
_chemical_formula_structural       H16S8
_chemical_formula_sum              "H16 S8"
_cell_length_a       8.83753075774048
_cell_length_b       8.83753075774048
_cell_length_c       8.83753075774048
_cell_angle_alpha    118.690318510586
_cell_angle_beta     118.69031851058598
_cell_angle_gamma    92.28380992055807

_space_group_name_H-M_alt    "P 1"
_space_group_IT_number       1

loop_
  _space_group_symop_operation_xyz
  'x, y, z'

loop_
  _atom_site_type_symbol
  _atom_site_label
  _atom_site_symmetry_multiplicity
  _atom_site_fract_x
  _atom_site_fract_y
  _atom_site_fract_z
  _atom_site_occupancy
  H   H1        1.0  0.5877060466445982  0.3126093858591048  0.7474814103916287  1.0000
  H   H2        1.0  0.30342432542238384  0.04147892212495208  0.47805202181916684  1.0000
  H   H3        1.0  0.5587674022972351  0.891895710490644  0.08545871824026108  1.0000
  H   H4        1.0  0.4506495187524706  0.19662021100521088  0.9917711783200502  1.0000
  H   H5        1.0  0.25185104622505605  0.974771989742294  0.7043590662069619  1.0000
  H   H6        1.0  0.12722132913768291  0.1058784481137991  0.4086194336414337  1.0000
  H   H7        1.0  0.22923656040802598  0.3666225119959563  0.2519813533872366  1.0000
  H   H8        1.0  0.44159826054237783  0.8248087946558371  0.6798808064195327  1.0000
  H   H9        1.0  0.2747964668087661  0.3979183566698339  0.22821985790506005  1.0000
  H   H10       1.0  0.23685827330336906  0.4626255526673049  0.7459480644320138  1.0000
  H   H11       1.0  0.9014413941185921  0.9890993487206288  0.5261309230700135  1.0000
  H   H12       1.0  0.5184135939925909  0.047775205224752426  0.03378083696588874  1.0000
  H   H13       1.0  0.07010551879648119  0.4536125768208876  0.6197278834879398  1.0000
  H   H14       1.0  0.6444519469514489  0.4185750491451472  0.41465669544413686  1.0000
  H   H15       1.0  0.030634934548288584  0.9211259559961036  0.5327822191175073  1.0000
  H   H16       1.0  0.2900225193006918  0.8037664047442377  0.2941169603727758  1.0000
  S   S1        1.0  0.44147684780182317  0.08062132686609402  0.9032939422177151  1.0000
  S   S2        1.0  0.3092401926696766  0.8519827130949125  0.39922394226596225  1.0000
  S   S3        1.0  0.47172651361324824  0.01874912521452643  0.3830327118630521  1.0000
  S   S4        1.0  0.7768239444703795  0.7476500532357022  0.834474746719934  1.0000
  S   S5        1.0  0.278553904092405  0.267104247584939  0.9401639691495802  1.0000
  S   S6        1.0  0.3116584506642539  0.6882474211452063  0.3041383895033505  1.0000
  S   S7        1.0  0.9382342677854467  0.26922564952838  0.8656609935860615  1.0000
  S   S8        1.0  0.6830035346793011  0.601727818720974  0.12053667212603614  1.0000
data_image55
_chemical_formula_structural       H16S8
_chemical_formula_sum              "H16 S8"
_cell_length_a       8.83753075774048
_cell_length_b       8.83753075774048
_cell_length_c       8.83753075774048
_cell_angle_alpha    118.690318510586
_cell_angle_beta     118.69031851058598
_cell_angle_gamma    92.28380992055807

_space_group_name_H-M_alt    "P 1"
_space_group_IT_number       1

loop_
  _space_group_symop_operation_xyz
  'x, y, z'

loop_
  _atom_site_type_symbol
  _atom_site_label
  _atom_site_symmetry_multiplicity
  _atom_site_fract_x
  _atom_site_fract_y
  _atom_site_fract_z
  _atom_site_occupancy
  H   H1        1.0  0.14146520965732634  0.38738842320162803  0.7980658691376448  1.0000
  H   H2        1.0  0.7557426730636507  0.29139208421111107  0.8674883018247783  1.0000
  H   H3        1.0  0.6920809465264028  0.39971380261704326  0.4969240555074066  1.0000
  H   H4        1.0  0.29405928449705243  0.5159510229714215  0.349996202159673  1.0000
  H   H5        1.0  0.4557175973895937  0.027604337432421744  0.5385186688508838  1.0000
  H   H6        1.0  0.6306128799915314  0.6091402489691973  0.754598842933774  1.0000
  H   H7        1.0  0.5357849388383329  0.8921900102868676  0.8632861040532589  1.0000
  H   H8        1.0  0.9875043034553528  0.04769362311344594  0.2795020498379017  1.0000
  H   H9        1.0  0.6707372292876244  0.1433456830563955  0.14140689675696194  1.0000
  H   H10       1.0  0.16341133069363423  0.35481471847742796  0.6852197718108073  1.0000
  H   H11       1.0  0.8745760230813175  0.919969380076509  0.9346639248542488  1.0000
  H   H12       1.0  0.3787372503429651  0.7157648396678269  0.7193176462315023  1.0000
  H   H13       1.0  0.7541272765956819  0.8773636813275516  0.5234691116493195  1.0000
  H   H14       1.0  0.4384432244114578  0.7973391914274544  0.2541799796745181  1.0000
  H   H15       1.0  0.7535148714669049  0.5161900118691847  0.4211547978920862  1.0000
  H   H16       1.0  0.9249223043443635  0.3800059803761542  0.5312405565055087  1.0000
  S   S1        1.0  0.7760504575271625  0.7716739546158351  0.16923695313744247  1.0000
  S   S2        1.0  0.027771211869549006  0.5322933691204526  0.6672690523118945  1.0000
  S   S3        1.0  0.5240906652761623  0.6943659307726193  0.8344794865697622  1.0000
  S   S4        1.0  0.6500857649953105  0.7043582251062617  0.29892053647199646  1.0000
  S   S5        1.0  0.22742040123557672  0.24777834460837767  0.9165254944527987  1.0000
  S   S6        1.0  0.0019008770759683102  0.2735234727151692  0.6118280858208891  1.0000
  S   S7        1.0  0.319467966677621  0.21455248164420482  0.07662572895060293  1.0000
  S   S8        1.0  0.28280046189320274  0.17672023928025737  0.6310935211076867  1.0000
data_image56
_chemical_formula_structural       H16S8
_chemical_formula_sum              "H16 S8"
_cell_length_a       8.83753075774048
_cell_length_b       8.83753075774048
_cell_length_c       8.83753075774048
_cell_angle_alpha    118.690318510586
_cell_angle_beta     118.69031851058598
_cell_angle_gamma    92.28380992055807

_space_group_name_H-M_alt    "P 1"
_space_group_IT_number       1

loop_
  _space_group_symop_operation_xyz
  'x, y, z'

loop_
  _atom_site_type_symbol
  _atom_site_label
  _atom_site_symmetry_multiplicity
  _atom_site_fract_x
  _atom_site_fract_y
  _atom_site_fract_z
  _atom_site_occupancy
  H   H1        1.0  0.8587114904075861  0.23831179784610868  0.4596497726161033  1.0000
  H   H2        1.0  0.08014172816183418  0.891189172398299  0.8728778481017798  1.0000
  H   H3        1.0  0.5289349391678115  0.08420551905874163  0.040134017588570714  1.0000
  H   H4        1.0  0.03236994054168463  0.34771800227463245  0.09174494497710839  1.0000
  H   H5        1.0  0.5081960709067062  0.0724843522766605  0.7397171462071128  1.0000
  H   H6        1.0  0.34571167081594467  0.8519119173288345  0.23903273418545723  1.0000
  H   H7        1.0  0.16231093928217888  0.5334319956600666  0.6393954041413963  1.0000
  H   H8        1.0  0.99245404091198  0.46475360763724893  0.3419360269108438  1.0000
  H   H9        1.0  0.00492389383725822  0.8325200615217909  0.9621288843918592  1.0000
  H   H10       1.0  0.5344573268666863  0.36531104426831007  0.4152351910015568  1.0000
  H   H11       1.0  0.6258543580770493  0.9552432285272516  0.023233257234096527  1.0000
  H   H12       1.0  0.12827246403321624  0.3336466755717993  0.9834877355024219  1.0000
  H   H13       1.0  0.681366452772636  0.050838296418078244  0.009789472445845604  1.0000
  H   H14       1.0  0.5104137968737632  0.21559330448508263  0.12788988510146737  1.0000
  H   H15       1.0  0.9723104578442872  0.3048001662828028  0.4737149180145934  1.0000
  H   H16       1.0  0.8258222887525335  0.5890714905690402  0.40020734583958983  1.0000
  S   S1        1.0  0.44452248807647265  0.2945424905628897  0.610235235420987  1.0000
  S   S2        1.0  0.6717181499698199  0.2613693701568991  0.20913162198849022  1.0000
  S   S3        1.0  0.1961097214370966  0.062236248690169305  0.25565108482260257  1.0000
  S   S4        1.0  0.39834580826573074  0.10223286296240985  0.7796572923543863  1.0000
  S   S5        1.0  0.053062145598232746  0.8385128969093785  0.7168071121559478  1.0000
  S   S6        1.0  0.9963689097203314  0.7910037757101236  0.1046105055429507  1.0000
  S   S7        1.0  0.8883855453168508  0.1554222494851274  0.09889648882381152  1.0000
  S   S8        1.0  0.44335004495223984  0.5230309045873582  0.10389175283489749  1.0000
data_image57
_chemical_formula_structural       H16S8
_chemical_formula_sum              "H16 S8"
_cell_length_a       8.83753075774048
_cell_length_b       8.83753075774048
_cell_length_c       8.83753075774048
_cell_angle_alpha    118.690318510586
_cell_angle_beta     118.69031851058598
_cell_angle_gamma    92.28380992055807

_space_group_name_H-M_alt    "P 1"
_space_group_IT_number       1

loop_
  _space_group_symop_operation_xyz
  'x, y, z'

loop_
  _atom_site_type_symbol
  _atom_site_label
  _atom_site_symmetry_multiplicity
  _atom_site_fract_x
  _atom_site_fract_y
  _atom_site_fract_z
  _atom_site_occupancy
  H   H1        1.0  0.015997653361409903  0.8976767940912396  0.3420059795025736  1.0000
  H   H2        1.0  0.1917007431620732  0.4005928090773523  0.9207771617220715  1.0000
  H   H3        1.0  0.9544561704860826  0.8124777018092573  0.2666079252958298  1.0000
  H   H4        1.0  0.8978268953505903  0.7366742412559688  0.7919285630341619  1.0000
  H   H5        1.0  0.5847392074065283  0.7294174574781209  0.63888184184907  1.0000
  H   H6        1.0  0.2124270722270012  0.7059089690446854  0.31747390516102314  1.0000
  H   H7        1.0  0.86448516510427  0.15027083014138043  0.39610113482922316  1.0000
  H   H8        1.0  0.9410750523093157  0.4057237752713263  0.3324399828707101  1.0000
  H   H9        1.0  0.05760782561264932  0.7964810809353366  0.5622941800393164  1.0000
  H   H10       1.0  0.08303947976673953  0.9826910030096769  0.16984713781857863  1.0000
  H   H11       1.0  0.031751680886372924  0.284316016419325  0.905723063275218  1.0000
  H   H12       1.0  0.30560475029051304  0.33554962184280157  0.8640856281854212  1.0000
  H   H13       1.0  0.9540675206935703  0.6152081107575214  0.8184845445211977  1.0000
  H   H14       1.0  0.8127797322813421  0.5118970007169992  0.4368444816209376  1.0000
  H   H15       1.0  0.1933163213543594  0.30272377422079444  0.1689842687919736  1.0000
  H   H16       1.0  0.8240209117066115  0.5957287615165114  0.08662458893377334  1.0000
  S   S1        1.0  0.553219622146571  0.40891947131603956  0.1438823868520558  1.0000
  S   S2        1.0  0.9550552764558233  0.29402126220520586  0.2800584247743245  1.0000
  S   S3        1.0  0.2007558516052086  0.9602109941188246  0.25680928357178345  1.0000
  S   S4        1.0  0.5253749262774363  0.26424449833575636  0.7316563178610522  1.0000
  S   S5        1.0  0.3014723000815138  0.36696681461762637  0.3641568529710639  1.0000
  S   S6        1.0  0.578305137634743  0.3090745867229998  0.32442670411546715  1.0000
  S   S7        1.0  0.2133656730002258  0.7541386077136849  0.47936426554224454  1.0000
  S   S8        1.0  0.22327218316786457  0.5848230550182052  0.23652774936635979  1.0000
data_image58
_chemical_formula_structural       H16S8
_chemical_formula_sum              "H16 S8"
_cell_length_a       8.83753075774048
_cell_length_b       8.83753075774048
_cell_length_c       8.83753075774048
_cell_angle_alpha    118.690318510586
_cell_angle_beta     118.69031851058598
_cell_angle_gamma    92.28380992055807

_space_group_name_H-M_alt    "P 1"
_space_group_IT_number       1

loop_
  _space_group_symop_operation_xyz
  'x, y, z'

loop_
  _atom_site_type_symbol
  _atom_site_label
  _atom_site_symmetry_multiplicity
  _atom_site_fract_x
  _atom_site_fract_y
  _atom_site_fract_z
  _atom_site_occupancy
  H   H1        1.0  0.6983984475955367  0.7251847595907748  0.49069090792909265  1.0000
  H   H2        1.0  0.5728688893141225  0.6992351536173373  0.31694549892563373  1.0000
  H   H3        1.0  0.8383179159973224  0.22637343709357083  0.03765724110417068  1.0000
  H   H4        1.0  0.46797808608971536  0.8904167525470257  0.15117335738614202  1.0000
  H   H5        1.0  0.08294049929827452  0.8573955908650532  0.7505127523327246  1.0000
  H   H6        1.0  0.8531013801693916  0.7350899744778872  0.8383931331336498  1.0000
  H   H7        1.0  0.04056604020297527  0.5485905755776912  0.7240071319974959  1.0000
  H   H8        1.0  0.5320283553446643  0.9077188178198412  0.41067797476716805  1.0000
  H   H9        1.0  0.07017744798213243  0.14810979459434748  0.7208206015639007  1.0000
  H   H10       1.0  0.9017148407001514  0.5122338512446731  0.633928153954912  1.0000
  H   H11       1.0  0.8109173409175128  0.37599993916228414  0.7479511704295874  1.0000
  H   H12       1.0  0.7896296977996826  0.013446282129734755  0.3320253579877317  1.0000
  H   H13       1.0  0.3125497758301208  0.4935009092223481  0.5784643919905648  1.0000
  H   H14       1.0  0.13515250571072102  0.8493279141839594  0.023342160042375326  1.0000
  H   H15       1.0  0.9032175242900848  0.7396037115249783  0.025474707246758044  1.0000
  H   H16       1.0  0.3166688035707921  0.48886404698714614  0.15942871861625463  1.0000
  S   S1        1.0  0.8730700725573115  0.41031232284149155  0.2057508542202413  1.0000
  S   S2        1.0  0.5049128035316244  0.0835756896995008  0.09413510785088874  1.0000
  S   S3        1.0  0.06504940631566569  0.05228625563904643  0.23485744767822325  1.0000
  S   S4        1.0  0.11930773762287572  0.013439462403766811  0.14162137848325074  1.0000
  S   S5        1.0  0.3542579223285429  0.9492126134573482  0.5062711472855881  1.0000
  S   S6        1.0  0.5416053018707316  0.6508010580582777  0.783253332512686  1.0000
  S   S7        1.0  0.4003714998543728  0.5999682380788727  0.47091651665687095  1.0000
  S   S8        1.0  0.6711152047646465  0.8422830336494371  0.28492777587962337  1.0000
data_image59
_chemical_formula_structural       H16S8
_chemical_formula_sum              "H16 S8"
_cell_length_a       8.83753075774048
_cell_length_b       8.83753075774048
_cell_length_c       8.83753075774048
_cell_angle_alpha    118.690318510586
_cell_angle_beta     118.69031851058598
_cell_angle_gamma    92.28380992055807

_space_group_name_H-M_alt    "P 1"
_space_group_IT_number       1

loop_
  _space_group_symop_operation_xyz
  'x, y, z'

loop_
  _atom_site_type_symbol
  _atom_site_label
  _atom_site_symmetry_multiplicity
  _atom_site_fract_x
  _atom_site_fract_y
  _atom_site_fract_z
  _atom_site_occupancy
  H   H1        1.0  0.1204132167622447  0.2565290874335915  0.7359815239906311  1.0000
  H   H2        1.0  0.3097767975414172  0.8089462879579514  0.30908268492203206  1.0000
  H   H3        1.0  0.13095197685834137  0.9985180462244898  0.5355276551563293  1.0000
  H   H4        1.0  0.43762034666724503  0.8950892770662904  0.9300300595350564  1.0000
  H   H5        1.0  0.9070425591198727  0.7642909925198182  0.0963688240153715  1.0000
  H   H6        1.0  0.3274936778470874  0.3341713733971119  0.13607190176844597  1.0000
  H   H7        1.0  0.12577566457912326  0.7968737985938787  0.9572971938177943  1.0000
  H   H8        1.0  0.15798753913259134  0.19802453205920756  0.6641748797192122  1.0000
  H   H9        1.0  0.9963626796379685  0.2820277342107147  0.5866415880154818  1.0000
  H   H10       1.0  0.3979828475858085  0.15822213096544147  0.23248670442262664  1.0000
  H   H11       1.0  0.8006589252036065  0.9879390153218992  0.5892283017747104  1.0000
  H   H12       1.0  0.6366715016774833  0.2977343942038715  0.18120310315862298  1.0000
  H   H13       1.0  0.15881580056156963  0.18994980365096126  0.7667476050555706  1.0000
  H   H14       1.0  0.4911806578747928  0.6425236272625625  0.9151825127191842  1.0000
  H   H15       1.0  0.11478032544255257  0.6414623698219657  0.06800574576482177  1.0000
  H   H16       1.0  0.751382544869557  0.10370121710002422  0.32424055808223784  1.0000
  S   S1        1.0  0.01364977314369753  0.10242484108312055  0.25843091832939535  1.0000
  S   S2        1.0  0.6444463232182898  0.08443501126021147  0.5869464882416651  1.0000
  S   S3        1.0  0.585435354965739  0.18349780177231878  0.17340156360296533  1.0000
  S   S4        1.0  0.11357544001657516  0.5147055119741708  0.35137317530461587  1.0000
  S   S5        1.0  0.6912940227775835  0.3504591817036271  0.8327202127256896  1.0000
  S   S6        1.0  0.7996140929753892  0.03191671328386292  0.4973719214613084  1.0000
  S   S7        1.0  0.2944565498328302  0.07528071807973902  0.8841059807455167  1.0000
  S   S8        1.0  0.2184595438593533  0.7732256056624465  0.5135856086853892  1.0000
data_image60
_chemical_formula_structural       H16S8
_chemical_formula_sum              "H16 S8"
_cell_length_a       8.83753075774048
_cell_length_b       8.83753075774048
_cell_length_c       8.83753075774048
_cell_angle_alpha    118.690318510586
_cell_angle_beta     118.69031851058598
_cell_angle_gamma    92.28380992055807

_space_group_name_H-M_alt    "P 1"
_space_group_IT_number       1

loop_
  _space_group_symop_operation_xyz
  'x, y, z'

loop_
  _atom_site_type_symbol
  _atom_site_label
  _atom_site_symmetry_multiplicity
  _atom_site_fract_x
  _atom_site_fract_y
  _atom_site_fract_z
  _atom_site_occupancy
  H   H1        1.0  0.7783210100606084  0.10547950491309166  0.12713895877823234  1.0000
  H   H2        1.0  0.4042045949026942  0.9071439171675593  0.7142627285793424  1.0000
  H   H3        1.0  0.825627069141774  0.9770430269418284  0.9200629105325788  1.0000
  H   H4        1.0  0.004866290371865034  0.06581493327394128  0.5016253249777947  1.0000
  H   H5        1.0  0.23791613103821874  0.2169282416580245  0.6247829991334584  1.0000
  H   H6        1.0  0.19890920538455248  0.43934191577136517  0.48509712889790535  1.0000
  H   H7        1.0  0.8570098360069096  0.12493856367655098  0.6990616586990654  1.0000
  H   H8        1.0  0.6532341315760277  0.150504490127787  0.2449151443943265  1.0000
  H   H9        1.0  0.58285655034706  0.5666893580928445  0.9565452598035336  1.0000
  H   H10       1.0  0.4390606200613547  0.08140959916636348  0.49875610397430137  1.0000
  H   H11       1.0  0.16104948776774108  0.19957666378468275  0.37330104829743505  1.0000
  H   H12       1.0  0.3178571444004774  0.005252812057733536  0.12075545871630311  1.0000
  H   H13       1.0  0.6666264104133006  0.6052472269511782  0.9527893920894712  1.0000
  H   H14       1.0  0.7760150383692235  0.7211941636633128  0.4597244136966765  1.0000
  H   H15       1.0  0.4935451876372099  0.6289475874509662  0.08103067229967564  1.0000
  H   H16       1.0  0.5042599643347785  0.7441887510940433  0.5305918916128576  1.0000
  S   S1        1.0  0.6405973596556578  0.1943692681961693  0.7035736195393838  1.0000
  S   S2        1.0  0.9991765035083517  0.5864178305491805  0.6586025608121417  1.0000
  S   S3        1.0  0.7771233626408502  0.046631925681140274  0.33982901932904497  1.0000
  S   S4        1.0  0.7181147598312236  0.19748299126513302  0.2551308599940967  1.0000
  S   S5        1.0  0.9070606520399451  0.8810289690154605  0.6340405869414099  1.0000
  S   S6        1.0  0.2175266303238459  0.42575601824501064  0.2820505312993191  1.0000
  S   S7        1.0  0.4899562634236645  0.2855497546929655  0.7372433524287771  1.0000
  S   S8        1.0  0.7543087621452287  0.33313512324821204  0.1202458307670895  1.0000
data_image61
_chemical_formula_structural       H16S8
_chemical_formula_sum              "H16 S8"
_cell_length_a       8.83753075774048
_cell_length_b       8.83753075774048
_cell_length_c       8.83753075774048
_cell_angle_alpha    118.690318510586
_cell_angle_beta     118.69031851058598
_cell_angle_gamma    92.28380992055807

_space_group_name_H-M_alt    "P 1"
_space_group_IT_number       1

loop_
  _space_group_symop_operation_xyz
  'x, y, z'

loop_
  _atom_site_type_symbol
  _atom_site_label
  _atom_site_symmetry_multiplicity
  _atom_site_fract_x
  _atom_site_fract_y
  _atom_site_fract_z
  _atom_site_occupancy
  H   H1        1.0  0.8743155184201896  0.5194534319452941  0.4110412271693349  1.0000
  H   H2        1.0  0.5937300950754434  0.7007601384539157  0.724083864595741  1.0000
  H   H3        1.0  0.6483061171784357  0.07230307813733816  0.1345468945801258  1.0000
  H   H4        1.0  0.6816808285657316  0.3071395242586732  0.9063868093071505  1.0000
  H   H5        1.0  0.764488828368485  0.3465469485381618  0.8217513028066605  1.0000
  H   H6        1.0  0.47385686077177525  0.0355058778077364  0.7470543421804905  1.0000
  H   H7        1.0  0.2928365133702755  0.7922569003421813  0.42443486768752337  1.0000
  H   H8        1.0  0.12503410218050703  0.001900954288430512  0.489063327587246  1.0000
  H   H9        1.0  0.11316289776004851  0.3944049193523824  0.9422622760757804  1.0000
  H   H10       1.0  0.9508011170837563  0.5038976883515716  0.9467804006417282  1.0000
  H   H11       1.0  0.8091006753966212  0.5769496919820085  0.14522964507341385  1.0000
  H   H12       1.0  0.878595151938498  0.9221505504101515  0.6140362960286438  1.0000
  H   H13       1.0  0.1618908958043903  0.08470804247190244  0.40270187333226204  1.0000
  H   H14       1.0  0.529903911286965  0.11860625259578228  0.8972902921959758  1.0000
  H   H15       1.0  0.5127301826141775  0.07112762203905731  0.042708025546744466  1.0000
  H   H16       1.0  0.25931741984095424  0.71249222708866  0.021114970557391644  1.0000
  S   S1        1.0  0.075418527747388  0.7428597478428856  0.018484897213056684  1.0000
  S   S2        1.0  0.15873132369597442  0.7151043099584058  0.4488041889562737  1.0000
  S   S3        1.0  0.32133373187389225  0.45487539714667946  0.34645528814871795  1.0000
  S   S4        1.0  0.031178824399830773  0.7854979534167796  0.23416553570132237  1.0000
  S   S5        1.0  0.987366403627675  0.8234690500539728  0.5814008532324806  1.0000
  S   S6        1.0  0.2701036875369027  0.2810619449155638  0.15537020956980996  1.0000
  S   S7        1.0  0.1925882516661659  0.5062951244726719  0.3872075092513114  1.0000
  S   S8        1.0  0.4786619210935896  0.4832450561807491  0.4512452843191568  1.0000
data_image62
_chemical_formula_structural       H16S8
_chemical_formula_sum              "H16 S8"
_cell_length_a       8.83753075774048
_cell_length_b       8.83753075774048
_cell_length_c       8.83753075774048
_cell_angle_alpha    118.690318510586
_cell_angle_beta     118.69031851058598
_cell_angle_gamma    92.28380992055807

_space_group_name_H-M_alt    "P 1"
_space_group_IT_number       1

loop_
  _space_group_symop_operation_xyz
  'x, y, z'

loop_
  _atom_site_type_symbol
  _atom_site_label
  _atom_site_symmetry_multiplicity
  _atom_site_fract_x
  _atom_site_fract_y
  _atom_site_fract_z
  _atom_site_occupancy
  H   H1        1.0  0.6516382694244385  0.1678028181195259  0.9310464435257018  1.0000
  H   H2        1.0  0.15242771920748055  0.7146241834852844  0.22248369548469782  1.0000
  H   H3        1.0  0.9056260643337737  0.5970126491738483  0.31692902301438153  1.0000
  H   H4        1.0  0.9414249283727258  0.9499367023818195  0.47766720032086596  1.0000
  H   H5        1.0  0.7662160597974434  0.3114980912068859  0.24636360831209458  1.0000
  H   H6        1.0  0.916410862468183  0.6838596854358912  0.3164074160158634  1.0000
  H   H7        1.0  0.9870235486887395  0.6809627865441144  0.5192713630385697  1.0000
  H   H8        1.0  0.5198168655624613  0.8054563198238611  0.47965406606090255  1.0000
  H   H9        1.0  0.03161068446934223  0.2723387669539079  0.6073633085470647  1.0000
  H   H10       1.0  0.019855986756738275  0.9470793635118753  0.29087611322756857  1.0000
  H   H11       1.0  0.6165285753086209  0.7362585947848856  0.016001922078430653  1.0000
  H   H12       1.0  0.08715277630835772  0.5249163638800383  0.012434720061719418  1.0000
  H   H13       1.0  0.41239437996409833  0.7934553799568675  0.06220455700531602  1.0000
  H   H14       1.0  0.42748391814529896  0.9196964013390243  0.3375585274770856  1.0000
  H   H15       1.0  0.8948806840926409  0.5561876781284809  0.11629258841276169  1.0000
  H   H16       1.0  0.38482407946139574  0.13715953147038817  0.5878517241217196  1.0000
  S   S1        1.0  0.09143605753342854  0.4999751655268483  0.012292458210140467  1.0000
  S   S2        1.0  0.6352866597590037  0.8699574656784534  0.9383819665963529  1.0000
  S   S3        1.0  0.24688215559581295  0.11586539898416959  0.11614570461097173  1.0000
  S   S4        1.0  0.763928426313214  0.8999164497945458  0.10225784830981866  1.0000
  S   S5        1.0  0.5344937472254969  0.3314075256930664  0.7147970583464485  1.0000
  S   S6        1.0  0.03679985861526802  0.5350981395022245  0.831448976212414  1.0000
  S   S7        1.0  0.9674244908383116  0.29248214259860106  0.540123920829501  1.0000
  S   S8        1.0  0.8903691371961031  0.42996463255258277  0.5788110333669465  1.0000
data_image63
_chemical_formula_structural       H16S8
_chemical_formula_sum              "H16 S8"
_cell_length_a       8.83753075774048
_cell_length_b       8.83753075774048
_cell_length_c       8.83753075774048
_cell_angle_alpha    118.690318510586
_cell_angle_beta     118.69031851058598
_cell_angle_gamma    92.28380992055807

_space_group_name_H-M_alt    "P 1"
_space_group_IT_number       1

loop_
  _space_group_symop_operation_xyz
  'x, y, z'

loop_
  _atom_site_type_symbol
  _atom_site_label
  _atom_site_symmetry_multiplicity
  _atom_site_fract_x
  _atom_site_fract_y
  _atom_site_fract_z
  _atom_site_occupancy
  H   H1        1.0  0.6537703773938119  0.03131425264291465  0.0986836664378643  1.0000
  H   H2        1.0  0.3191846236586571  0.5559166718740016  0.05836688284762204  1.0000
  H   H3        1.0  0.05361141392131685  0.9857356968568638  0.6008595027960837  1.0000
  H   H4        1.0  0.7207199546974152  0.03622377244755626  0.5130404563096818  1.0000
  H   H5        1.0  0.6193452274892479  0.29479749186430126  0.9789419110456947  1.0000
  H   H6        1.0  0.8826714940369129  0.3792725279927254  0.8658929076045752  1.0000
  H   H7        1.0  0.9452238599769771  0.35303948167711496  0.5922622368671  1.0000
  H   H8        1.0  0.47145889594685286  0.1480605365941301  0.4177599555696361  1.0000
  H   H9        1.0  0.9201641578692943  0.06974738638382405  0.25317554315552115  1.0000
  H   H10       1.0  0.5242336100200191  0.869262647582218  0.6718814992927946  1.0000
  H   H11       1.0  0.9501266772858799  0.5112536903470755  0.6080564181320369  1.0000
  H   H12       1.0  0.19613756705075502  0.8038887269794941  0.00893766013905406  1.0000
  H   H13       1.0  0.7218108345987275  0.3696493397874292  0.21304702467750758  1.0000
  H   H14       1.0  0.2715403838083148  0.817310985410586  0.8602802446112037  1.0000
  H   H15       1.0  0.6397771574556828  0.8458424955606461  0.08542356826364994  1.0000
  H   H16       1.0  0.512894427170977  0.6359607083722949  0.1565803645644337  1.0000
  S   S1        1.0  0.9543941459560301  0.5354185146279633  0.486413653838099  1.0000
  S   S2        1.0  0.1150425020896364  0.08552958082873374  0.9981864768342348  1.0000
  S   S3        1.0  0.43531175947282463  0.7497664864640683  0.7714440221025143  1.0000
  S   S4        1.0  0.9047920469311066  0.5170347345992923  0.571398866653908  1.0000
  S   S5        1.0  0.4664931977749802  0.7121463392395526  0.09478304086951539  1.0000
  S   S6        1.0  0.04263877111952752  0.671560515766032  0.8220866161282174  1.0000
  S   S7        1.0  0.0327615783753572  0.10375260794535279  0.2853848417289555  1.0000
  S   S8        1.0  0.25460512742210994  0.27880689734593034  0.28113955486333  1.0000
data_image64
_chemical_formula_structural       H16S8
_chemical_formula_sum              "H16 S8"
_cell_length_a       8.83753075774048
_cell_length_b       8.83753075774048
_cell_length_c       8.83753075774048
_cell_angle_alpha    118.690318510586
_cell_angle_beta     118.69031851058598
_cell_angle_gamma    92.28380992055807

_space_group_name_H-M_alt    "P 1"
_space_group_IT_number       1

loop_
  _space_group_symop_operation_xyz
  'x, y, z'

loop_
  _atom_site_type_symbol
  _atom_site_label
  _atom_site_symmetry_multiplicity
  _atom_site_fract_x
  _atom_site_fract_y
  _atom_site_fract_z
  _atom_site_occupancy
  H   H1        1.0  0.4343485767021775  0.6085869723465294  0.34237678768113256  1.0000
  H   H2        1.0  0.13132030656561255  0.20043114689178765  0.342526831664145  1.0000
  H   H3        1.0  0.699212451097992  0.704024106496945  0.8324917503632605  1.0000
  H   H4        1.0  0.3506885594688356  0.30457037361338735  0.5356891661358532  1.0000
  H   H5        1.0  0.6858539441600442  0.695008471258916  0.6137925471994095  1.0000
  H   H6        1.0  0.8721539592370391  0.7035433668643236  0.13070098869502544  1.0000
  H   H7        1.0  0.5511597744189203  0.0013814179692417383  0.3010345888324082  1.0000
  H   H8        1.0  0.5857215386349708  0.880423822964076  0.2252144874073565  1.0000
  H   H9        1.0  0.02865651063621044  0.05492352356668562  0.9815119574777782  1.0000
  H   H10       1.0  0.1867282428429462  0.16879068687558174  0.22191744530573487  1.0000
  H   H11       1.0  0.680069082416594  0.1703244117088616  0.8196216188371181  1.0000
  H   H12       1.0  0.17119089793413877  0.1691326261498034  0.027366433118004352  1.0000
  H   H13       1.0  0.23256674176082015  0.3174561131745577  0.2153956857509911  1.0000
  H   H14       1.0  0.5285437870770693  0.13728568516671658  0.20760202780365944  1.0000
  H   H15       1.0  0.54673405084759  0.607349993661046  0.3940996043384075  1.0000
  H   H16       1.0  0.5475922249024734  0.026875718729570508  0.8172078767092898  1.0000
  S   S1        1.0  0.7838619546673726  0.645309781859396  0.011983009197138017  1.0000
  S   S2        1.0  0.6148181852768175  0.6047009864123538  0.7190353724290617  1.0000
  S   S3        1.0  0.6779972867225297  0.2611083525698632  0.8067121455387678  1.0000
  S   S4        1.0  0.6897777559352107  0.3600027908105403  0.9862732290057465  1.0000
  S   S5        1.0  0.7771858060732484  0.7963486182852648  0.4403765753377229  1.0000
  S   S6        1.0  0.6638620282756165  0.66109362214047  0.16654215258313343  1.0000
  S   S7        1.0  0.9684066241752589  0.08239965816028416  0.4342394748236984  1.0000
  S   S8        1.0  0.8347053930447146  0.931389314122498  0.8920789264375344  1.0000
data_image65
_chemical_formula_structural       H16S8
_chemical_formula_sum              "H16 S8"
_cell_length_a       8.83753075774048
_cell_length_b       8.83753075774048
_cell_length_c       8.83753075774048
_cell_angle_alpha    118.690318510586
_cell_angle_beta     118.69031851058598
_cell_angle_gamma    92.28380992055807

_space_group_name_H-M_alt    "P 1"
_space_group_IT_number       1

loop_
  _space_group_symop_operation_xyz
  'x, y, z'

loop_
  _atom_site_type_symbol
  _atom_site_label
  _atom_site_symmetry_multiplicity
  _atom_site_fract_x
  _atom_site_fract_y
  _atom_site_fract_z
  _atom_site_occupancy
  H   H1        1.0  0.8349332250654697  0.4133126074448228  0.3352955048903823  1.0000
  H   H2        1.0  0.20225862646475434  0.7601995137520134  0.13715559476986527  1.0000
  H   H3        1.0  0.8206929080006375  0.7528538249898702  0.6687410590238869  1.0000
  H   H4        1.0  0.05139973619952798  0.716822877060622  0.06373298409744166  1.0000
  H   H5        1.0  0.06749528460204601  0.9957166707608849  0.8900472531095147  1.0000
  H   H6        1.0  0.6582068335264921  0.5388985704630613  0.8986343368887901  1.0000
  H   H7        1.0  0.9943918343633413  0.8861134792678058  0.7410815553739667  1.0000
  H   H8        1.0  0.34255859127733856  0.7393726157606579  0.6431994503946044  1.0000
  H   H9        1.0  0.22553651710040867  0.42529111306066625  0.7303563156165183  1.0000
  H   H10       1.0  0.8075465270667337  0.564970892155543  0.13754066813271493  1.0000
  H   H11       1.0  0.8951951563358307  0.3968020537868142  0.6983625306747854  1.0000
  H   H12       1.0  0.8812045860104263  0.278387607075274  0.9168388335965574  1.0000
  H   H13       1.0  0.017218498920556158  0.6584683373512235  0.226053535239771  1.0000
  H   H14       1.0  0.39570485800504684  0.572039820253849  0.9908255264163017  1.0000
  H   H15       1.0  0.6384675679728389  0.46454994939267635  0.19939726404845715  1.0000
  H   H16       1.0  0.5314936564536765  0.7104475852102041  0.028393778717145324  1.0000
  S   S1        1.0  0.41498770701582544  0.7857147647882812  0.2036039672420884  1.0000
  S   S2        1.0  0.35942895332118496  0.39649238367564976  0.6288983405102044  1.0000
  S   S3        1.0  0.6791804812091868  0.4744853223382961  0.7317417961603496  1.0000
  S   S4        1.0  0.4247979603242129  0.05269898765254766  0.7197597410413437  1.0000
  S   S5        1.0  0.8439157904722379  0.7124232377973385  0.3982556448318064  1.0000
  S   S6        1.0  0.8044242895557545  0.7259357885777717  0.6241515406873077  1.0000
  S   S7        1.0  0.25979029570589773  0.9333071706350893  0.6255888148443773  1.0000
  S   S8        1.0  0.7336889883608819  0.4805243129376322  0.2607989269308746  1.0000
data_image66
_chemical_formula_structural       H16S8
_chemical_formula_sum              "H16 S8"
_cell_length_a       8.83753075774048
_cell_length_b       8.83753075774048
_cell_length_c       8.83753075774048
_cell_angle_alpha    118.690318510586
_cell_angle_beta     118.69031851058598
_cell_angle_gamma    92.28380992055807

_space_group_name_H-M_alt    "P 1"
_space_group_IT_number       1

loop_
  _space_group_symop_operation_xyz
  'x, y, z'

loop_
  _atom_site_type_symbol
  _atom_site_label
  _atom_site_symmetry_multiplicity
  _atom_site_fract_x
  _atom_site_fract_y
  _atom_site_fract_z
  _atom_site_occupancy
  H   H1        1.0  0.7387659051455557  0.6250353497453034  0.7669743809383363  1.0000
  H   H2        1.0  0.18295134115032852  0.7952753731515259  0.10310325492173433  1.0000
  H   H3        1.0  0.5349242686643265  0.4062784385168925  0.22414613678120077  1.0000
  H   H4        1.0  0.7700469736009836  0.17498332494869828  0.9047819955158047  1.0000
  H   H5        1.0  0.31658379454165697  0.6247648923890665  0.03127535176463425  1.0000
  H   H6        1.0  0.32499848306179047  0.19345001876354218  0.11144464276731014  1.0000
  H   H7        1.0  0.978295361623168  0.8471770100295544  0.9305093656294048  1.0000
  H   H8        1.0  0.9647106748307124  0.25120613945182413  0.29722748580388725  1.0000
  H   H9        1.0  0.03475315822288394  0.6599235729081556  0.024824829655699432  1.0000
  H   H10       1.0  0.7849096960853785  0.2611968263518065  0.32014724414329976  1.0000
  H   H11       1.0  0.26326963026076555  0.009881972800940275  0.6615241756662726  1.0000
  H   H12       1.0  0.7504428620450199  0.024045823607593775  0.279435396194458  1.0000
  H   H13       1.0  0.3848899163422175  0.32496182090835646  0.07839558168780059  1.0000
  H   H14       1.0  0.01710710395127535  0.552427813410759  0.9337757602334023  1.0000
  H   H15       1.0  0.9150155987590551  0.7428272124379873  0.8124193232506514  1.0000
  H   H16       1.0  0.8595886086113751  0.8022635022643954  0.6161189756821841  1.0000
  S   S1        1.0  0.9005441312619951  0.6312070389394648  0.9405678348994115  1.0000
  S   S2        1.0  0.28988461260451004  0.04990495031233877  0.44871906634944025  1.0000
  S   S3        1.0  0.20081112388288602  0.3310191640339326  0.7697538745123893  1.0000
  S   S4        1.0  0.47944025130709633  0.6374294225824997  0.4202349843690172  1.0000
  S   S5        1.0  0.2770922683412209  0.08644484519027174  0.043579682940617204  1.0000
  S   S6        1.0  0.6970780741539784  0.2159063565195538  0.017843710695160553  1.0000
  S   S7        1.0  0.5512120632338338  0.3350046379491687  0.09515304397791624  1.0000
  S   S8        1.0  0.5110260288638528  0.6934789856895804  0.5665553009603173  1.0000
data_image67
_chemical_formula_structural       H16S8
_chemical_formula_sum              "H16 S8"
_cell_length_a       8.83753075774048
_cell_length_b       8.83753075774048
_cell_length_c       8.83753075774048
_cell_angle_alpha    118.690318510586
_cell_angle_beta     118.69031851058598
_cell_angle_gamma    92.28380992055807

_space_group_name_H-M_alt    "P 1"
_space_group_IT_number       1

loop_
  _space_group_symop_operation_xyz
  'x, y, z'

loop_
  _atom_site_type_symbol
  _atom_site_label
  _atom_site_symmetry_multiplicity
  _atom_site_fract_x
  _atom_site_fract_y
  _atom_site_fract_z
  _atom_site_occupancy
  H   H1        1.0  0.8581147412769496  0.31426326744258404  0.8018977146130055  1.0000
  H   H2        1.0  0.43593151099048555  0.7500263713300228  0.26873870473355055  1.0000
  H   H3        1.0  0.39551116817165166  0.8096373261651024  0.6037714472040534  1.0000
  H   H4        1.0  0.4726630614604801  0.5620351936668158  0.12681204997352324  1.0000
  H   H5        1.0  0.5021196343004704  0.177243277663365  0.6702394622261636  1.0000
  H   H6        1.0  0.989113898947835  0.06952842511236668  0.7524979095906019  1.0000
  H   H7        1.0  0.838838258292526  0.13854673132300377  0.7266492550261319  1.0000
  H   H8        1.0  0.5928470228100196  0.02557233616244048  0.9094301824225113  1.0000
  H   H9        1.0  0.46632454288192093  0.05255559226498008  0.11686378601007164  1.0000
  H   H10       1.0  0.3141137383063324  0.8966494756750762  0.8025246624602005  1.0000
  H   H11       1.0  0.061235086526721716  0.696722851600498  0.9285920015536249  1.0000
  H   H12       1.0  0.8115019286051393  0.008328409865498543  0.5866528740152717  1.0000
  H   H13       1.0  0.1180419092415832  0.019208206795156002  0.6469986217562109  1.0000
  H   H14       1.0  0.05183727294206619  0.04049438238143921  0.13370101153850555  1.0000
  H   H15       1.0  0.8349564811214805  0.6535435281693935  0.38501762598752975  1.0000
  H   H16       1.0  0.7003129905788228  0.32088056625798345  0.8588265950093046  1.0000
  S   S1        1.0  0.757368367863819  0.10347042031935416  0.07838617759261979  1.0000
  S   S2        1.0  0.48557840805733576  0.6803376722382382  0.35237645692541264  1.0000
  S   S3        1.0  0.5364499143906869  0.1662525399151491  0.8996536722406745  1.0000
  S   S4        1.0  0.8949439849820919  0.445285354857333  0.6570480979280546  1.0000
  S   S5        1.0  0.4905583559157094  0.4471210621413775  0.4642675386276096  1.0000
  S   S6        1.0  0.2766734992619604  0.08216994296526536  0.6584170200221706  1.0000
  S   S7        1.0  0.8110439232550561  0.5636922810808755  0.6122581916861236  1.0000
  S   S8        1.0  0.3032628473447403  0.5352097809081897  0.39973923668731004  1.0000
data_image68
_chemical_formula_structural       H16S8
_chemical_formula_sum              "H16 S8"
_cell_length_a       8.83753075774048
_cell_length_b       8.83753075774048
_cell_length_c       8.83753075774048
_cell_angle_alpha    118.690318510586
_cell_angle_beta     118.69031851058598
_cell_angle_gamma    92.28380992055807

_space_group_name_H-M_alt    "P 1"
_space_group_IT_number       1

loop_
  _space_group_symop_operation_xyz
  'x, y, z'

loop_
  _atom_site_type_symbol
  _atom_site_label
  _atom_site_symmetry_multiplicity
  _atom_site_fract_x
  _atom_site_fract_y
  _atom_site_fract_z
  _atom_site_occupancy
  H   H1        1.0  0.5929199540987611  0.3667744055856019  0.3964507591444999  1.0000
  H   H2        1.0  0.6527995814103633  0.36445514345541596  0.0960037037730217  1.0000
  H   H3        1.0  0.6450609843013808  0.39938906172756106  0.8745082039386034  1.0000
  H   H4        1.0  0.5777844323311001  0.07217944506555796  0.7931006310100202  1.0000
  H   H5        1.0  0.9776791571639478  0.02311469678534195  0.6057517601293512  1.0000
  H   H6        1.0  0.7376240994781256  0.9909512121230364  0.19931760430335999  1.0000
  H   H7        1.0  0.3061478575691581  0.023722233017906547  0.14178125513717532  1.0000
  H   H8        1.0  0.05988381744828075  0.3314814793993719  0.4486294475500472  1.0000
  H   H9        1.0  0.9840629220707342  0.8304883558303118  0.3116660285741091  1.0000
  H   H10       1.0  0.5836064852774143  0.17666747933253646  0.4204735139501281  1.0000
  H   H11       1.0  0.9181447965092957  0.7467260207049549  0.8269163626246154  1.0000
  H   H12       1.0  0.34545751847326756  0.8516143588349223  0.08448326587677002  1.0000
  H   H13       1.0  0.1817084903595969  0.6011078981246101  0.799223375855945  1.0000
  H   H14       1.0  0.05791362840682268  0.22216057404875755  0.46965937688946724  1.0000
  H   H15       1.0  0.5381367849186063  0.22557862102985382  0.3118118345737457  1.0000
  H   H16       1.0  0.22834599309135228  0.6894583576358855  0.6549833053722978  1.0000
  S   S1        1.0  0.5430465014360379  0.2720336175407283  0.7407325105959899  1.0000
  S   S2        1.0  0.7223121493007056  0.5232121482258663  0.4252322716056369  1.0000
  S   S3        1.0  0.67333016966586  0.4756820357579272  0.5297740165842697  1.0000
  S   S4        1.0  0.5360618285485543  0.8421867465367541  0.7312008937587962  1.0000
  S   S5        1.0  0.705023921065731  0.543544584652409  0.49447345919907093  1.0000
  S   S6        1.0  0.04578833351843059  0.3243240324954968  0.9503642199561  1.0000
  S   S7        1.0  0.44414762513770256  0.24928357178578153  0.8068111281609163  1.0000
  S   S8        1.0  0.35039878913084976  0.019606612157076597  0.5501855536131188  1.0000
data_image69
_chemical_formula_structural       H16S8
_chemical_formula_sum              "H16 S8"
_cell_length_a       8.83753075774048
_cell_length_b       8.83753075774048
_cell_length_c       8.83753075774048
_cell_angle_alpha    118.690318510586
_cell_angle_beta     118.69031851058598
_cell_angle_gamma    92.28380992055807

_space_group_name_H-M_alt    "P 1"
_space_group_IT_number       1

loop_
  _space_group_symop_operation_xyz
  'x, y, z'

loop_
  _atom_site_type_symbol
  _atom_site_label
  _atom_site_symmetry_multiplicity
  _atom_site_fract_x
  _atom_site_fract_y
  _atom_site_fract_z
  _atom_site_occupancy
  H   H1        1.0  0.17971773631870747  0.5387548494618386  0.6886966286692768  1.0000
  H   H2        1.0  0.09356963355094194  0.32189233135432005  0.9191829073242843  1.0000
  H   H3        1.0  0.6406984817003831  0.8907814266858622  0.010287718148902059  1.0000
  H   H4        1.0  0.6994712650775909  0.6096109310165048  0.9588602032745257  1.0000
  H   H5        1.0  0.6205961783416569  0.09246863750740886  0.6048197783529758  1.0000
  H   H6        1.0  0.9247280480340123  0.24559087492525578  0.737373411655426  1.0000
  H   H7        1.0  0.6381800081580877  0.42111119674518704  0.669530073646456  1.0000
  H   H8        1.0  0.07001249259337783  0.6437207299750298  0.41874900192487985  1.0000
  H   H9        1.0  0.17232069507008418  0.8357459984254092  0.5017228834331036  1.0000
  H   H10       1.0  0.380909554369282  0.931501901242882  0.9957669044379145  1.0000
  H   H11       1.0  0.7006648890674114  0.5432367599569261  0.5001369337551296  1.0000
  H   H12       1.0  0.2269693585112691  0.24873834382742643  0.9903917964547873  1.0000
  H   H13       1.0  0.8892131142492872  0.1752240893256385  0.992327612824738  1.0000
  H   H14       1.0  0.08427986223250628  0.7078026495873928  0.7936623282730579  1.0000
  H   H15       1.0  0.2725219251587987  0.08871369995176792  0.5527576375752687  1.0000
  H   H16       1.0  0.05040417320560664  0.06245025363750756  0.07988920586649328  1.0000
  S   S1        1.0  0.21723521826788783  0.13576877454761416  0.10473949466540944  1.0000
  S   S2        1.0  0.8166964101837948  0.1654420365812257  0.333315408177441  1.0000
  S   S3        1.0  0.01798214844893664  0.8013570053153671  0.4697735959489364  1.0000
  S   S4        1.0  0.8523522819159552  0.14774739125277847  0.8272427004994825  1.0000
  S   S5        1.0  0.513996993395267  0.7892416795366444  0.8373581904452294  1.0000
  S   S6        1.0  0.06421982048777863  0.7279908886412159  0.9686831131984945  1.0000
  S   S7        1.0  0.15556994028156623  0.4736859955592081  0.087075280607678  1.0000
  S   S8        1.0  0.5193693132314365  0.3600033613620326  0.8546816871967167  1.0000
data_image70
_chemical_formula_structural       H16S8
_chemical_formula_sum              "H16 S8"
_cell_length_a       8.83753075774048
_cell_length_b       8.83753075774048
_cell_length_c       8.83753075774048
_cell_angle_alpha    118.690318510586
_cell_angle_beta     118.69031851058598
_cell_angle_gamma    92.28380992055807

_space_group_name_H-M_alt    "P 1"
_space_group_IT_number       1

loop_
  _space_group_symop_operation_xyz
  'x, y, z'

loop_
  _atom_site_type_symbol
  _atom_site_label
  _atom_site_symmetry_multiplicity
  _atom_site_fract_x
  _atom_site_fract_y
  _atom_site_fract_z
  _atom_site_occupancy
  H   H1        1.0  0.7174721271730959  0.2653348445892334  0.1227776468731463  1.0000
  H   H2        1.0  0.0868053724989295  0.4920573679264635  0.4022275651805103  1.0000
  H   H3        1.0  0.6018672375212191  0.4747226082254201  0.36012557335197926  1.0000
  H   H4        1.0  0.6813363148830831  0.7908188654109836  0.5047710834478494  1.0000
  H   H5        1.0  0.5606490806676447  0.47898211440769956  0.11425028479425237  1.0000
  H   H6        1.0  0.2674190942198038  0.957589752972126  0.8190177772194147  1.0000
  H   H7        1.0  0.7755854083225131  0.014651909237727523  0.9454527320340276  1.0000
  H   H8        1.0  0.6027969933347777  0.5535593592794612  0.5479159732349217  1.0000
  H   H9        1.0  0.07370633591199294  0.45050191483460367  0.9513634433969855  1.0000
  H   H10       1.0  0.1520815662224777  0.27887404547072947  0.41953910246957093  1.0000
  H   H11       1.0  0.27849325025454164  0.5294267167337239  0.5365461469627917  1.0000
  H   H12       1.0  0.012289229780435562  0.4906345820054412  0.40694147534668446  1.0000
  H   H13       1.0  0.31397345536970533  0.7033076615189202  0.41621177445631474  1.0000
  H   H14       1.0  0.32716200966387987  0.08938317000865936  0.011260993778705597  1.0000
  H   H15       1.0  0.5393479354679585  0.3719157986342907  0.7710190191864967  1.0000
  H   H16       1.0  0.6895300139440224  0.7472265916876495  0.9228600438218564  1.0000
  S   S1        1.0  0.12853294183150865  0.694369232369354  0.6991392244053714  1.0000
  S   S2        1.0  0.15085491922218353  0.33053175383247435  0.6971640634874348  1.0000
  S   S3        1.0  0.4861765450623352  0.39820556231279625  0.24887054256396368  1.0000
  S   S4        1.0  0.8325265751918778  0.34889017045497894  0.9800483620492741  1.0000
  S   S5        1.0  0.626433435769286  0.1085469105746597  0.17268715635873377  1.0000
  S   S6        1.0  0.5509644270059653  0.8287151722470298  0.8138614396157209  1.0000
  S   S7        1.0  0.7087296538520604  0.014885274227708578  0.5354217879939824  1.0000
  S   S8        1.0  0.11157330105197616  0.8171861170558259  0.07721276278607547  1.0000
data_image71
_chemical_formula_structural       H16S8
_chemical_formula_sum              "H16 S8"
_cell_length_a       8.83753075774048
_cell_length_b       8.83753075774048
_cell_length_c       8.83753075774048
_cell_angle_alpha    118.690318510586
_cell_angle_beta     118.69031851058598
_cell_angle_gamma    92.28380992055807

_space_group_name_H-M_alt    "P 1"
_space_group_IT_number       1

loop_
  _space_group_symop_operation_xyz
  'x, y, z'

loop_
  _atom_site_type_symbol
  _atom_site_label
  _atom_site_symmetry_multiplicity
  _atom_site_fract_x
  _atom_site_fract_y
  _atom_site_fract_z
  _atom_site_occupancy
  H   H1        1.0  0.10285525256767869  0.2346848901361227  0.05477743479423225  1.0000
  H   H2        1.0  0.4041330614127219  0.6396901744883507  0.9309811587445438  1.0000
  H   H3        1.0  0.2230551925022155  0.5908127531874925  0.5600955104455352  1.0000
  H   H4        1.0  0.448869536165148  0.7240268564783037  0.529003555624513  1.0000
  H   H5        1.0  0.5804788582026958  0.4091877603204921  0.942133704724256  1.0000
  H   H6        1.0  0.1408847589045763  0.679514080286026  0.9951238837093115  1.0000
  H   H7        1.0  0.048686832189559937  0.007004834013059735  0.33222858933731914  1.0000
  H   H8        1.0  0.178942178376019  0.1826224679243751  0.9724372604396194  1.0000
  H   H9        1.0  0.5891378665110096  0.01233813469298184  0.26749709295108914  1.0000
  H   H10       1.0  0.6420921458047815  0.3865682063624263  0.9253962564980611  1.0000
  H   H11       1.0  0.7445361064746976  0.16199930105358362  0.7913143755868077  1.0000
  H   H12       1.0  0.19390179589390755  0.411995779722929  0.2548577901907265  1.0000
  H   H13       1.0  0.6505758880812209  0.5165271748992382  0.2398382704705  1.0000
  H   H14       1.0  0.6361078405752778  0.7648218888789415  0.8942416645586491  1.0000
  H   H15       1.0  0.5386941339820623  0.9394371751695871  0.053732503205537796  1.0000
  H   H16       1.0  0.1180011258693412  0.868950541364029  0.19744601345155388  1.0000
  S   S1        1.0  0.9744851440773346  0.865669303224422  0.14741218878953077  1.0000
  S   S2        1.0  0.697508763463702  0.9570275840815157  0.1674135625216877  1.0000
  S   S3        1.0  0.7415338073624298  0.5861828783563396  0.5501741453626892  1.0000
  S   S4        1.0  0.5915433001937345  0.39503848436288536  0.23595710983499885  1.0000
  S   S5        1.0  0.12705340946558863  0.6302900218870491  0.05667119659483433  1.0000
  S   S6        1.0  0.1086904454859905  0.911216311622411  0.5802690598065965  1.0000
  S   S7        1.0  0.5137371812597848  0.9668847235152498  0.30883160268422216  1.0000
  S   S8        1.0  0.2618922177643981  0.30231814074795693  0.5657698791474104  1.0000
data_image72
_chemical_formula_structural       H16S8
_chemical_formula_sum              "H16 S8"
_cell_length_a       8.83753075774048
_cell_length_b       8.83753075774048
_cell_length_c       8.83753075774048
_cell_angle_alpha    118.690318510586
_cell_angle_beta     118.69031851058598
_cell_angle_gamma    92.28380992055807

_space_group_name_H-M_alt    "P 1"
_space_group_IT_number       1

loop_
  _space_group_symop_operation_xyz
  'x, y, z'

loop_
  _atom_site_type_symbol
  _atom_site_label
  _atom_site_symmetry_multiplicity
  _atom_site_fract_x
  _atom_site_fract_y
  _atom_site_fract_z
  _atom_site_occupancy
  H   H1        1.0  0.2798034781590104  0.4187120564747602  0.7228663864079863  1.0000
  H   H2        1.0  0.7935050907544792  0.32933049264829606  0.8570620638784021  1.0000
  H   H3        1.0  0.03335763807990588  0.7201361111365259  0.800193430390209  1.0000
  H   H4        1.0  0.5475553588476032  0.305818438064307  0.572077821183484  1.0000
  H   H5        1.0  0.5129437129944563  0.9442530942615122  0.9083916983217932  1.0000
  H   H6        1.0  0.13127410225570202  0.3807128556072712  0.19885618425905704  1.0000
  H   H7        1.0  0.7209123410284519  0.8330348869785666  0.050847355742007494  1.0000
  H   H8        1.0  0.37565456551965326  0.5500679312390275  0.7811717510921881  1.0000
  H   H9        1.0  0.6274708484415896  0.15480669168755412  0.7797070196829736  1.0000
  H   H10       1.0  0.5949220943148248  0.6303508912678808  0.9292119343299419  1.0000
  H   H11       1.0  0.27650294499471784  0.07381132617592812  0.41236046236008406  1.0000
  H   H12       1.0  0.9508920488879085  0.7222033534198999  0.7854037806391716  1.0000
  H   H13       1.0  0.6884106034704018  0.7383206237718696  0.852983660530299  1.0000
  H   H14       1.0  0.2022059177979827  0.6465039998292923  0.9969138093292713  1.0000
  H   H15       1.0  0.7735522668808699  0.4609441068023443  0.6805946286767721  1.0000
  H   H16       1.0  0.13908918213564903  0.7772874883376062  0.03451681602746248  1.0000
  S   S1        1.0  0.7750693513662554  0.5205616244638804  0.6235424743468911  1.0000
  S   S2        1.0  0.15482483099913225  0.2923405007459223  0.8292792056890903  1.0000
  S   S3        1.0  0.8313805122161284  0.020063350570126204  0.9738918343209662  1.0000
  S   S4        1.0  0.7134222307940945  0.8831383886281401  0.17727240989916027  1.0000
  S   S5        1.0  0.42073702209745534  0.21349136694334447  0.13494940847158432  1.0000
  S   S6        1.0  0.15018651518039405  0.41232488257810473  0.7178317566285841  1.0000
  S   S7        1.0  0.12690029849181883  0.05596422066446394  0.793338741757907  1.0000
  S   S8        1.0  0.012416689161909744  0.09578209300525486  0.8207765689585358  1.0000
data_image73
_chemical_formula_structural       H16S8
_chemical_formula_sum              "H16 S8"
_cell_length_a       8.83753075774048
_cell_length_b       8.83753075774048
_cell_length_c       8.83753075774048
_cell_angle_alpha    118.690318510586
_cell_angle_beta     118.69031851058598
_cell_angle_gamma    92.28380992055807

_space_group_name_H-M_alt    "P 1"
_space_group_IT_number       1

loop_
  _space_group_symop_operation_xyz
  'x, y, z'

loop_
  _atom_site_type_symbol
  _atom_site_label
  _atom_site_symmetry_multiplicity
  _atom_site_fract_x
  _atom_site_fract_y
  _atom_site_fract_z
  _atom_site_occupancy
  H   H1        1.0  0.48739655362442136  0.4821042602416128  0.7056905305944383  1.0000
  H   H2        1.0  0.29851222806610167  0.9331097530666739  0.9916215760167688  1.0000
  H   H3        1.0  0.8328830815153196  0.42045043082907796  0.16572966799139977  1.0000
  H   H4        1.0  0.2163211025763303  0.20747221820056438  0.5323233699018601  1.0000
  H   H5        1.0  0.4993341523222625  0.5315667965915054  0.07042990706395358  1.0000
  H   H6        1.0  0.0378697756677866  0.006680365651845932  0.439287256449461  1.0000
  H   H7        1.0  0.5523345191031694  0.8873411666136235  0.04300443176180124  1.0000
  H   H8        1.0  0.779060929082334  0.5637082546600141  0.7647521893959492  1.0000
  H   H9        1.0  0.31403260663500987  0.36735146632418036  0.4151614122092724  1.0000
  H   H10       1.0  0.602379105403088  0.6158074918203056  0.2244864696986042  1.0000
  H   H11       1.0  0.943654015660286  0.5929234945215285  0.816907140891999  1.0000
  H   H12       1.0  0.41616435162723064  0.5188393834978342  0.4857655353844166  1.0000
  H   H13       1.0  0.8830180390214082  0.1954476377577521  0.24762623733840883  1.0000
  H   H14       1.0  0.4528842493891716  0.3664469011127949  0.7360436953604221  1.0000
  H   H15       1.0  0.7183346822857857  0.8870593067258596  0.5568957589566708  1.0000
  H   H16       1.0  0.038643418229185045  0.10802814667113125  0.7908049746183679  1.0000
  S   S1        1.0  0.9582168741035275  0.6929782052757218  0.8379816793881218  1.0000
  S   S2        1.0  0.01652229652972892  0.8670407762983814  0.5104151330306195  1.0000
  S   S3        1.0  0.5076177329465281  0.03917359555271105  0.5794646544236457  1.0000
  S   S4        1.0  0.665407806111034  0.9499232228845358  0.3305720863863826  1.0000
  S   S5        1.0  0.8615678394271526  0.3134942537872121  0.9681469926144928  1.0000
  S   S6        1.0  0.7326783072203398  0.3705384969653096  0.3810199201107025  1.0000
  S   S7        1.0  0.8166875430615619  0.2884670248022303  0.42589728662278503  1.0000
  S   S8        1.0  0.5610072502749972  0.3408221583813429  0.5526530843926594  1.0000
data_image74
_chemical_formula_structural       H16S8
_chemical_formula_sum              "H16 S8"
_cell_length_a       8.83753075774048
_cell_length_b       8.83753075774048
_cell_length_c       8.83753075774048
_cell_angle_alpha    118.690318510586
_cell_angle_beta     118.69031851058598
_cell_angle_gamma    92.28380992055807

_space_group_name_H-M_alt    "P 1"
_space_group_IT_number       1

loop_
  _space_group_symop_operation_xyz
  'x, y, z'

loop_
  _atom_site_type_symbol
  _atom_site_label
  _atom_site_symmetry_multiplicity
  _atom_site_fract_x
  _atom_site_fract_y
  _atom_site_fract_z
  _atom_site_occupancy
  H   H1        1.0  0.37553372886031866  0.2427182060200721  0.6074112842325121  1.0000
  H   H2        1.0  0.9546119808219373  0.7177196010015905  0.7325250329449773  1.0000
  H   H3        1.0  0.39517762360628694  0.7616338725201786  0.6786041865125299  1.0000
  H   H4        1.0  0.28999371943064034  0.1088043637573719  0.19246362418925855  1.0000
  H   H5        1.0  0.6208641640841961  0.7236722446978092  0.24311905063223094  1.0000
  H   H6        1.0  0.7739119017496705  0.3800957631319761  0.44128298573195934  1.0000
  H   H7        1.0  0.7845016890205443  0.3368404053617269  0.817787719424814  1.0000
  H   H8        1.0  0.8663841098314151  0.048348338867072016  0.34237731399480253  1.0000
  H   H9        1.0  0.33388366736471653  0.46173648023977876  0.1181099433451891  1.0000
  H   H10       1.0  0.644029856484849  0.5214161085896194  0.4964764733449556  1.0000
  H   H11       1.0  0.7844032463617623  0.1764079062268138  0.5075829830020666  1.0000
  H   H12       1.0  0.07078054780140519  0.48008154425770044  0.9623550125397742  1.0000
  H   H13       1.0  0.4291274249262642  0.6608075297990581  0.1068615522235632  1.0000
  H   H14       1.0  0.15062568243592978  0.41759072057902813  0.9845816940069199  1.0000
  H   H15       1.0  0.6349202003329992  0.06914115324616432  0.4982824008911848  1.0000
  H   H16       1.0  0.8521774966502562  0.9056703776586801  0.5003390234196559  1.0000
  S   S1        1.0  0.43116331679630093  0.3523581099580042  0.29710922922322425  1.0000
  S   S2        1.0  0.4403429182129912  0.14866348693612963  0.9623973102134187  1.0000
  S   S3        1.0  0.20512610781588592  0.7730074697828968  0.3771077108976897  1.0000
  S   S4        1.0  0.5170172394136898  0.7135527631035075  0.06699951644986868  1.0000
  S   S5        1.0  0.5297532374970615  0.43805190350394696  0.8508013924583793  1.0000
  S   S6        1.0  0.05021152482368052  0.736510793416528  0.3668961201037746  1.0000
  S   S7        1.0  0.37613156432053074  0.44188239227514714  0.317261882009916  1.0000
  S   S8        1.0  0.7596657025278546  0.9476189211709425  0.6018798926379532  1.0000
data_image75
_chemical_formula_structural       H16S8
_chemical_formula_sum              "H16 S8"
_cell_length_a       8.83753075774048
_cell_length_b       8.83753075774048
_cell_length_c       8.83753075774048
_cell_angle_alpha    118.690318510586
_cell_angle_beta     118.69031851058598
_cell_angle_gamma    92.28380992055807

_space_group_name_H-M_alt    "P 1"
_space_group_IT_number       1

loop_
  _space_group_symop_operation_xyz
  'x, y, z'

loop_
  _atom_site_type_symbol
  _atom_site_label
  _atom_site_symmetry_multiplicity
  _atom_site_fract_x
  _atom_site_fract_y
  _atom_site_fract_z
  _atom_site_occupancy
  H   H1        1.0  0.10039643524214625  0.5657846652902663  0.512724174419418  1.0000
  H   H2        1.0  0.3946899815928191  0.2722550146281719  0.7690078623127192  1.0000
  H   H3        1.0  0.8382125460775569  0.23744728788733482  0.46955039631575346  1.0000
  H   H4        1.0  0.3398138030897826  0.24739284487441182  0.28421517107926775  1.0000
  H   H5        1.0  0.6237844517454505  0.7184751742752269  0.8624181934865192  1.0000
  H   H6        1.0  0.9169834442436695  0.23754430003464222  0.9924425967037678  1.0000
  H   H7        1.0  0.9132406730204821  0.2014573139604181  0.6162445466034114  1.0000
  H   H8        1.0  0.8610081787919626  0.13456442236201838  0.670068864361383  1.0000
  H   H9        1.0  0.7425751556875184  0.5609034870285541  0.10988677619025111  1.0000
  H   H10       1.0  0.3193493876606226  0.022389515303075314  0.3653513684403151  1.0000
  H   H11       1.0  0.12548273894935846  0.9144783345982432  0.5983841791749  1.0000
  H   H12       1.0  0.4080095402896404  0.15854302514344454  0.9863744575995952  1.0000
  H   H13       1.0  0.6966043598367833  0.32212610125134233  0.7351745195919648  1.0000
  H   H14       1.0  0.9090463211759925  0.8740953970700502  0.26664041727781296  1.0000
  H   H15       1.0  0.23626557178795338  0.8006469998508692  0.5525711216032505  1.0000
  H   H16       1.0  0.04680349165573716  0.3811846408061683  0.26892060914542526  1.0000
  S   S1        1.0  0.6791189303330611  0.69795086880913  0.20289608366601897  1.0000
  S   S2        1.0  0.9699257992906496  0.028102708631195128  0.9198551115696318  1.0000
  S   S3        1.0  0.3986772437056061  0.11806494087068131  0.6965807743690675  1.0000
  S   S4        1.0  0.8316435682354495  0.4557889043353498  0.5237536330823787  1.0000
  S   S5        1.0  0.35687615265487693  0.1449472587555647  0.9036550791934133  1.0000
  S   S6        1.0  0.2865064862999134  0.7846723328111693  0.978800449433038  1.0000
  S   S7        1.0  0.0858126261155121  0.6341869421303272  0.4056245199171826  1.0000
  S   S8        1.0  0.8110346995526925  0.651917768176645  0.9167315386002883  1.0000
data_image76
_chemical_formula_structural       H16S8
_chemical_formula_sum              "H16 S8"
_cell_length_a       8.83753075774048
_cell_length_b       8.83753075774048
_cell_length_c       8.83753075774048
_cell_angle_alpha    118.690318510586
_cell_angle_beta     118.69031851058598
_cell_angle_gamma    92.28380992055807

_space_group_name_H-M_alt    "P 1"
_space_group_IT_number       1

loop_
  _space_group_symop_operation_xyz
  'x, y, z'

loop_
  _atom_site_type_symbol
  _atom_site_label
  _atom_site_symmetry_multiplicity
  _atom_site_fract_x
  _atom_site_fract_y
  _atom_site_fract_z
  _atom_site_occupancy
  H   H1        1.0  0.994416207075119  0.866987926652655  0.7955802194774151  1.0000
  H   H2        1.0  0.15751589671708643  0.5460571268340573  0.027384236687794328  1.0000
  H   H3        1.0  0.22572184540331364  0.9395590536296368  0.5527825665194541  1.0000
  H   H4        1.0  0.03397687990218401  0.152722988743335  0.3108331844850909  1.0000
  H   H5        1.0  0.6140994448214769  0.9358946997090243  0.7060758013394661  1.0000
  H   H6        1.0  0.4820646857842803  0.19708343967795372  0.8166461084038019  1.0000
  H   H7        1.0  0.313932369928807  0.7089594663120806  0.41308105643838644  1.0000
  H   H8        1.0  0.24196485220454633  0.9697737589012831  0.29037673969287425  1.0000
  H   H9        1.0  0.4441743502393365  0.7144170203246176  0.2046485817991197  1.0000
  H   H10       1.0  0.3955379871185869  0.3122486548963934  0.7494998450274579  1.0000
  H   H11       1.0  0.4403781187720597  0.5257895803079009  0.8078385284170508  1.0000
  H   H12       1.0  0.8796754125505686  0.5520263938233256  0.547714009648189  1.0000
  H   H13       1.0  0.7190231918357313  0.6181325301004108  0.4281558629591018  1.0000
  H   H14       1.0  0.1460426254197955  0.5657912753522396  0.26263950765132904  1.0000
  H   H15       1.0  0.9075880814343691  0.458354189991951  0.9865576308220625  1.0000
  H   H16       1.0  0.8008077514823526  0.7658232457470149  0.15421759483433561  1.0000
  S   S1        1.0  0.06415475587709807  0.13833658047951758  0.5454491661366774  1.0000
  S   S2        1.0  0.42516467720270157  0.4926698326598853  0.6562888107728213  1.0000
  S   S3        1.0  0.2565026916563511  0.22019184692544513  0.9888767422817182  1.0000
  S   S4        1.0  0.48093010287266225  0.07242367858998477  0.7060091376770288  1.0000
  S   S5        1.0  0.35934644914232194  0.04119229386560619  0.3880883469246328  1.0000
  S   S6        1.0  0.004838069900870323  0.3981274601246696  0.8358948745299131  1.0000
  S   S7        1.0  0.47475313377799466  0.11128138611093163  0.23478070471901447  1.0000
  S   S8        1.0  0.10132875869749114  0.3732833625981584  0.5368421118473634  1.0000
data_image77
_chemical_formula_structural       H16S8
_chemical_formula_sum              "H16 S8"
_cell_length_a       8.83753075774048
_cell_length_b       8.83753075774048
_cell_length_c       8.83753075774048
_cell_angle_alpha    118.690318510586
_cell_angle_beta     118.69031851058598
_cell_angle_gamma    92.28380992055807

_space_group_name_H-M_alt    "P 1"
_space_group_IT_number       1

loop_
  _space_group_symop_operation_xyz
  'x, y, z'

loop_
  _atom_site_type_symbol
  _atom_site_label
  _atom_site_symmetry_multiplicity
  _atom_site_fract_x
  _atom_site_fract_y
  _atom_site_fract_z
  _atom_site_occupancy
  H   H1        1.0  0.1874533537775278  0.8890531056094915  0.39880336564965546  1.0000
  H   H2        1.0  0.2364891606848687  0.3413071734830737  0.28927032835781574  1.0000
  H   H3        1.0  0.6856716484762728  0.33530023437924683  0.14067842508666217  1.0000
  H   H4        1.0  0.34494647197425365  0.5896329488605261  0.6348433708772063  1.0000
  H   H5        1.0  0.3796034886036068  0.7770741299027577  0.8085319752572104  1.0000
  H   H6        1.0  0.8736196905374527  0.8022318761795759  0.15986652672290802  1.0000
  H   H7        1.0  0.4646395295858383  0.1373764337040484  0.029076922684907913  1.0000
  H   H8        1.0  0.11212020460516214  0.9125784210918937  0.43590961676090956  1.0000
  H   H9        1.0  0.22299961745738983  0.22774989833123982  0.8234037971124053  1.0000
  H   H10       1.0  0.8539416163112037  0.6453880616463721  0.3894624376553111  1.0000
  H   H11       1.0  0.5892602875828743  0.9424724169075489  0.5591284628026187  1.0000
  H   H12       1.0  0.5262160878628492  0.6693676514551044  0.07889914093539119  1.0000
  H   H13       1.0  0.2087018133024685  0.5450808856257936  0.7720877103274688  1.0000
  H   H14       1.0  0.2844792604446411  0.17121253535151482  0.3055809736251831  1.0000
  H   H15       1.0  0.6550583261996508  0.2420764248818159  0.05340842716395855  1.0000
  H   H16       1.0  0.4347515010740608  0.2910100262379274  0.25647100250353105  1.0000
  S   S1        1.0  0.9936301612760872  0.9163084432366304  0.2302154160279315  1.0000
  S   S2        1.0  0.7917662463732995  0.7886771548073739  0.22903011011658236  1.0000
  S   S3        1.0  0.26872740674298257  0.6025826310869888  0.19464487407822162  1.0000
  S   S4        1.0  0.06204156874446198  0.2942887175595388  0.31572326668538153  1.0000
  S   S5        1.0  0.6300746836641338  0.14341506245546043  0.6846118757966906  1.0000
  S   S6        1.0  0.1775216931127943  0.5281546477344818  0.5417765037564095  1.0000
  S   S7        1.0  0.8320366562111303  0.9124594634631649  0.881800658418797  1.0000
  S   S8        1.0  0.8760541583469603  0.3914265363710001  0.8733590876217932  1.0000
data_image78
_chemical_formula_structural       H16S8
_chemical_formula_sum              "H16 S8"
_cell_length_a       8.83753075774048
_cell_length_b       8.83753075774048
_cell_length_c       8.83753075774048
_cell_angle_alpha    118.690318510586
_cell_angle_beta     118.69031851058598
_cell_angle_gamma    92.28380992055807

_space_group_name_H-M_alt    "P 1"
_space_group_IT_number       1

loop_
  _space_group_symop_operation_xyz
  'x, y, z'

loop_
  _atom_site_type_symbol
  _atom_site_label
  _atom_site_symmetry_multiplicity
  _atom_site_fract_x
  _atom_site_fract_y
  _atom_site_fract_z
  _atom_site_occupancy
  H   H1        1.0  0.608977796509862  0.7819410187657923  0.24595136218704283  1.0000
  H   H2        1.0  0.5221524520311505  0.25325259170494974  0.49509168812073767  1.0000
  H   H3        1.0  0.6823487501824275  0.1664423851761967  0.1914311102591455  1.0000
  H   H4        1.0  0.6294487868435681  0.38644274952821434  0.7897276137955487  1.0000
  H   H5        1.0  0.3116526242811233  0.6799916685558856  0.9930691969348118  1.0000
  H   H6        1.0  0.9481276217848063  0.2710056807845831  0.5958653297275305  1.0000
  H   H7        1.0  0.14191645430400968  0.4314518771134317  0.14017099607735872  1.0000
  H   H8        1.0  0.10907111770939082  0.28989483806071803  0.4054843767080456  1.0000
  H   H9        1.0  0.03553462238050997  0.5552088336553425  0.6633852263912559  1.0000
  H   H10       1.0  0.7211603026371449  0.9135713260620832  0.06588581664254889  1.0000
  H   H11       1.0  0.8799142758361995  0.24116866802796721  0.7342818160541356  1.0000
  H   H12       1.0  0.40564032923430204  0.46369127463549376  0.5287345815449953  1.0000
  H   H13       1.0  0.780528063129168  0.8309473456465639  0.5927856834605336  1.0000
  H   H14       1.0  0.28047455847263336  0.6758582219481468  0.0531010776758194  1.0000
  H   H15       1.0  0.9191516432911158  0.46504534408450127  0.9107547290623188  1.0000
  H   H16       1.0  0.8277542165014893  0.9303640619618818  0.6300517412018962  1.0000
  S   S1        1.0  0.055793012434151024  0.05933968783938326  0.8317699150939006  1.0000
  S   S2        1.0  0.3436366595560685  0.849477591807954  0.051509190001524985  1.0000
  S   S3        1.0  0.8172680296411272  0.7311892846864794  0.34823652684281114  1.0000
  S   S4        1.0  0.05841036600759253  0.6463472455507144  0.972547706856858  1.0000
  S   S5        1.0  0.9434291736397427  0.9602384011959657  0.6799743205774575  1.0000
  S   S6        1.0  0.3069484892184846  0.252506267541321  0.6752078580902889  1.0000
  S   S7        1.0  0.34262027725344524  0.2648944992106408  0.882477609149646  1.0000
  S   S8        1.0  0.27807370459777303  0.5741764686536044  0.6492638242198154  1.0000
data_image79
_chemical_formula_structural       H16S8
_chemical_formula_sum              "H16 S8"
_cell_length_a       8.83753075774048
_cell_length_b       8.83753075774048
_cell_length_c       8.83753075774048
_cell_angle_alpha    118.690318510586
_cell_angle_beta     118.69031851058598
_cell_angle_gamma    92.28380992055807

_space_group_name_H-M_alt    "P 1"
_space_group_IT_number       1

loop_
  _space_group_symop_operation_xyz
  'x, y, z'

loop_
  _atom_site_type_symbol
  _atom_site_label
  _atom_site_symmetry_multiplicity
  _atom_site_fract_x
  _atom_site_fract_y
  _atom_site_fract_z
  _atom_site_occupancy
  H   H1        1.0  0.8409808399155736  0.6149921705946326  0.9856140725314617  1.0000
  H   H2        1.0  0.6324593676254153  0.11961826030164957  0.3051708620041609  1.0000
  H   H3        1.0  0.9201556525658816  0.9163396628573537  0.1294542783871293  1.0000
  H   H4        1.0  0.9972160025499761  0.15865162177942693  0.4267163415206596  1.0000
  H   H5        1.0  0.5367123922333121  0.5230475711869076  0.029239641095045954  1.0000
  H   H6        1.0  0.45258440636098385  0.7850225642323494  0.4032318778336048  1.0000
  H   H7        1.0  0.5481617054902017  0.39652162906713784  0.8988420413807034  1.0000
  H   H8        1.0  0.817432088078931  0.1316186361364089  0.10843856493011117  1.0000
  H   H9        1.0  0.6236267179483548  0.48474210198037326  0.09423439623787999  1.0000
  H   H10       1.0  0.6966672381386161  0.02439226023852825  0.8866893993108533  1.0000
  H   H11       1.0  0.16210340289399028  0.47238551266491413  0.19279519421979785  1.0000
  H   H12       1.0  0.4660028596408665  0.08446730952709913  0.2304592013824731  1.0000
  H   H13       1.0  0.2497317745583132  0.9597613618243486  0.47641800838755444  1.0000
  H   H14       1.0  0.9772401861846447  0.4328594636172056  0.34019701555371284  1.0000
  H   H15       1.0  0.6174429096281528  0.25263418443500996  0.19466873724013567  1.0000
  H   H16       1.0  0.04776015505194664  0.16631230007624254  0.7682225086027756  1.0000
  S   S1        1.0  0.5179142277920619  0.9098246011708397  0.8218686952604912  1.0000
  S   S2        1.0  0.5292815654538572  0.1675752499140799  0.28044613113161176  1.0000
  S   S3        1.0  0.004492337553529069  0.8544067744805943  0.7266929459874518  1.0000
  S   S4        1.0  0.4522002031444572  0.33710943441838026  0.8002052580704913  1.0000
  S   S5        1.0  0.5899555809737649  0.3220023000612855  0.12165916478261352  1.0000
  S   S6        1.0  0.4913150184438564  0.9971107432502322  0.8905579494894482  1.0000
  S   S7        1.0  0.37020034942543134  0.7895776698132977  0.06398603360867128  1.0000
  S   S8        1.0  0.6613868717540754  0.3370560669573024  0.5116084970068187  1.0000
data_image80
_chemical_formula_structural       H16S8
_chemical_formula_sum              "H16 S8"
_cell_length_a       8.83753075774048
_cell_length_b       8.83753075774048
_cell_length_c       8.83753075774048
_cell_angle_alpha    118.690318510586
_cell_angle_beta     118.69031851058598
_cell_angle_gamma    92.28380992055807

_space_group_name_H-M_alt    "P 1"
_space_group_IT_number       1

loop_
  _space_group_symop_operation_xyz
  'x, y, z'

loop_
  _atom_site_type_symbol
  _atom_site_label
  _atom_site_symmetry_multiplicity
  _atom_site_fract_x
  _atom_site_fract_y
  _atom_site_fract_z
  _atom_site_occupancy
  H   H1        1.0  0.9140159348025918  0.5532224308699369  0.7933862193021923  1.0000
  H   H2        1.0  0.8609728023875505  0.4088957314379513  0.9502782190684229  1.0000
  H   H3        1.0  0.7956485432805493  0.4688699801918119  0.586747164838016  1.0000
  H   H4        1.0  0.6120361827779561  0.42781228525564075  0.15708387666381896  1.0000
  H   H5        1.0  0.3223593095317483  0.9482817250536755  0.16707565734395757  1.0000
  H   H6        1.0  0.15551489125937223  0.3956039994955063  0.11326370015740395  1.0000
  H   H7        1.0  0.9810264226980507  0.47012412175536156  0.4418779369443655  1.0000
  H   H8        1.0  0.5638134899782017  0.08441860845778137  0.2711764886043966  1.0000
  H   H9        1.0  0.0763138976180926  0.9768495651660487  0.8895513145253062  1.0000
  H   H10       1.0  0.1134699946269393  0.9879593073856086  0.7750620799488388  1.0000
  H   H11       1.0  0.2238919986411929  0.026437205262482166  0.9448731108568609  1.0000
  H   H12       1.0  0.9137122072279453  0.41847432870417833  0.9288774223532528  1.0000
  H   H13       1.0  0.4106413201079704  0.9164397682761773  0.06165721453726292  1.0000
  H   H14       1.0  0.06695013586431742  0.4115270972251892  0.9226341545581818  1.0000
  H   H15       1.0  0.6656780391931534  0.719891807064414  0.7812430141493678  1.0000
  H   H16       1.0  0.637567681260407  0.27943333811708726  0.8011181667097844  1.0000
  S   S1        1.0  0.21272009855601937  0.7796344497764949  0.35270990582648665  1.0000
  S   S2        1.0  0.6865627320948988  0.2022462059976533  0.14860217762179673  1.0000
  S   S3        1.0  0.40173201951620285  0.13201893016230315  0.2117886353189533  1.0000
  S   S4        1.0  0.48333550768438727  0.1640587419969961  0.04438026895513758  1.0000
  S   S5        1.0  0.489805804550997  0.536033739685081  0.03553565079346299  1.0000
  S   S6        1.0  0.9280480786983389  0.21950096264481544  0.050995253695873544  1.0000
  S   S7        1.0  0.414140606764704  0.7383714284515008  0.4966589853866026  1.0000
  S   S8        1.0  0.7438201270997524  0.09412868414074183  0.14592832629568875  1.0000
data_image81
_chemical_formula_structural       H16S8
_chemical_formula_sum              "H16 S8"
_cell_length_a       8.83753075774048
_cell_length_b       8.83753075774048
_cell_length_c       8.83753075774048
_cell_angle_alpha    118.690318510586
_cell_angle_beta     118.69031851058598
_cell_angle_gamma    92.28380992055807

_space_group_name_H-M_alt    "P 1"
_space_group_IT_number       1

loop_
  _space_group_symop_operation_xyz
  'x, y, z'

loop_
  _atom_site_type_symbol
  _atom_site_label
  _atom_site_symmetry_multiplicity
  _atom_site_fract_x
  _atom_site_fract_y
  _atom_site_fract_z
  _atom_site_occupancy
  H   H1        1.0  0.25923099368810654  0.6819051790516824  0.5287034341599792  1.0000
  H   H2        1.0  0.09624642715789378  0.6974235931411386  0.8194387687835842  1.0000
  H   H3        1.0  0.8498752143932506  0.20117836934514344  0.4539242214523256  1.0000
  H   H4        1.0  0.8533714227378368  0.6037522377446294  0.357302991556935  1.0000
  H   H5        1.0  0.4571724212728441  0.5311831897124648  0.6793089857092127  1.0000
  H   H6        1.0  0.4175713397562504  0.0636382307857275  0.5320245642215014  1.0000
  H   H7        1.0  0.558081507217139  0.4768307819031179  0.45579846668988466  1.0000
  H   H8        1.0  0.3572968611260876  0.881601515924558  0.8393302028998733  1.0000
  H   H9        1.0  0.1797558122780174  0.3460667961044237  0.9704500548541546  1.0000
  H   H10       1.0  0.2909208709606901  0.7999625327065587  0.00741019076667726  1.0000
  H   H11       1.0  0.560191448777914  0.06934586307033896  0.5184107595123351  1.0000
  H   H12       1.0  0.8350310726091266  0.19974931050091982  0.8846689905039966  1.0000
  H   H13       1.0  0.01780071057146415  0.45167347154347226  0.8871076217619702  1.0000
  H   H14       1.0  0.7603143313899636  0.08759956806898117  0.16331912577152252  1.0000
  H   H15       1.0  0.21725419536232948  0.8622677754610777  0.4742973167449236  1.0000
  H   H16       1.0  0.530720570590347  0.8025261463481002  0.8277301970520057  1.0000
  S   S1        1.0  0.16256090544629842  0.08417196420487016  0.591804604860954  1.0000
  S   S2        1.0  0.28285772376693785  0.4637414630269632  0.7533021760173142  1.0000
  S   S3        1.0  0.4707912425219547  0.5456999633315718  0.7901597269956255  1.0000
  S   S4        1.0  0.43979127961210907  0.8844024329446256  0.513629291090183  1.0000
  S   S5        1.0  0.09040667150111403  0.3610396257136017  0.27674345462583005  1.0000
  S   S6        1.0  0.9159741762268823  0.2468501573894173  0.21464069274952635  1.0000
  S   S7        1.0  0.14287116355262697  0.5632060843054205  0.8586419181374367  1.0000
  S   S8        1.0  0.568617356759205  0.31207692075986415  0.12325964332558215  1.0000
data_image82
_chemical_formula_structural       H16S8
_chemical_formula_sum              "H16 S8"
_cell_length_a       8.83753075774048
_cell_length_b       8.83753075774048
_cell_length_c       8.83753075774048
_cell_angle_alpha    118.690318510586
_cell_angle_beta     118.69031851058598
_cell_angle_gamma    92.28380992055807

_space_group_name_H-M_alt    "P 1"
_space_group_IT_number       1

loop_
  _space_group_symop_operation_xyz
  'x, y, z'

loop_
  _atom_site_type_symbol
  _atom_site_label
  _atom_site_symmetry_multiplicity
  _atom_site_fract_x
  _atom_site_fract_y
  _atom_site_fract_z
  _atom_site_occupancy
  H   H1        1.0  0.16220440110191703  0.9234204674139619  0.17818776983767748  1.0000
  H   H2        1.0  0.16775188292376697  0.31556047056801617  0.6206270013935864  1.0000
  H   H3        1.0  0.5510324072092772  0.805337738012895  0.01549908728338778  1.0000
  H   H4        1.0  0.9156240711454302  0.498484292300418  0.7542838605586439  1.0000
  H   H5        1.0  0.767898565158248  0.7869190237252042  0.8523216422181576  1.0000
  H   H6        1.0  0.6551819462329149  0.9183798544108868  0.28570983558893204  1.0000
  H   H7        1.0  0.1733091687783599  0.5716731704305857  0.9486209959723055  1.0000
  H   H8        1.0  0.3684614085359499  0.25063656736165285  0.9055044315755367  1.0000
  H   H9        1.0  0.6878041562158614  0.10069658071734011  0.14996504178270698  1.0000
  H   H10       1.0  0.2611171184689738  0.6727723074145615  0.49042069335700944  1.0000
  H   H11       1.0  0.680211282800883  0.15118430322036147  0.6524082995019853  1.0000
  H   H12       1.0  0.9577584443613887  0.7633314207196236  0.2889883224852383  1.0000
  H   H13       1.0  0.9050493772956543  0.10083824797766283  0.019940056547056884  1.0000
  H   H14       1.0  0.12791279703378677  0.2989784423261881  0.34350867941975594  1.0000
  H   H15       1.0  0.3668794482946396  0.335682051256299  0.36076790653169155  1.0000
  H   H16       1.0  0.09417365491390228  0.3486933747190051  0.595486369158607  1.0000
  S   S1        1.0  0.05985222297022119  0.15301598815131  0.757880478980951  1.0000
  S   S2        1.0  0.2758965699467808  0.02769522846210748  0.007429024903103709  1.0000
  S   S3        1.0  0.22390169729806075  0.8576182656979654  0.5803042388870381  1.0000
  S   S4        1.0  0.3198820069665089  0.25854157435242087  0.01352692738873884  1.0000
  S   S5        1.0  0.27958408631093334  0.9288568838965148  0.31140562472864985  1.0000
  S   S6        1.0  0.34105734511103947  0.7702839033736382  0.6531694161822088  1.0000
  S   S7        1.0  0.5890150030027144  0.6666833315975964  0.5160628147423267  1.0000
  S   S8        1.0  0.9155676345981192  0.4977977129165083  0.5089575265301391  1.0000
data_image83
_chemical_formula_structural       H16S8
_chemical_formula_sum              "H16 S8"
_cell_length_a       8.83753075774048
_cell_length_b       8.83753075774048
_cell_length_c       8.83753075774048
_cell_angle_alpha    118.690318510586
_cell_angle_beta     118.69031851058598
_cell_angle_gamma    92.28380992055807

_space_group_name_H-M_alt    "P 1"
_space_group_IT_number       1

loop_
  _space_group_symop_operation_xyz
  'x, y, z'

loop_
  _atom_site_type_symbol
  _atom_site_label
  _atom_site_symmetry_multiplicity
  _atom_site_fract_x
  _atom_site_fract_y
  _atom_site_fract_z
  _atom_site_occupancy
  H   H1        1.0  0.16742419824004173  0.5555566505063325  0.9264036808162928  1.0000
  H   H2        1.0  0.8209107420407236  0.6501586453523487  0.5302203777246177  1.0000
  H   H3        1.0  0.7284445265540853  0.09500332199968398  0.9390217892359942  1.0000
  H   H4        1.0  0.08328970591537654  0.5673608183860779  0.4138621937017888  1.0000
  H   H5        1.0  0.028220599750056863  0.48039130424149334  0.7247818257892504  1.0000
  H   H6        1.0  0.6976006738841534  0.9785102512687445  0.46617240831255913  1.0000
  H   H7        1.0  0.08410789864137769  0.1171659876126796  0.8030424700118601  1.0000
  H   H8        1.0  0.5048311512800865  0.8000034953001887  0.03196140052750707  1.0000
  H   H9        1.0  0.08551936910953373  0.1437303590355441  0.3258230611681938  1.0000
  H   H10       1.0  0.5363244837499224  0.9939349330961704  0.42857579461997375  1.0000
  H   H11       1.0  0.16383025282993913  0.1969638136215508  0.07969120983034372  1.0000
  H   H12       1.0  0.3006701497361064  0.8062736475840211  0.7185824105981737  1.0000
  H   H13       1.0  0.8056391652789898  0.6252777027548291  0.7050792825175449  1.0000
  H   H14       1.0  0.5858492786064744  0.24929555878043175  0.30592865869402885  1.0000
  H   H15       1.0  0.23447902873158455  0.6897595785558224  0.0328327901661396  1.0000
  H   H16       1.0  0.7382677057757974  0.3356982191617135  0.39531998930033296  1.0000
  S   S1        1.0  0.7646740205236711  0.8352532146964222  0.568017465644516  1.0000
  S   S2        1.0  0.5168121841270477  0.04396911500953138  0.5962385907769203  1.0000
  S   S3        1.0  0.6330349473955721  0.054706725233700126  0.12151275157157215  1.0000
  S   S4        1.0  0.4706905245548114  0.6493545564590022  0.41052607155870646  1.0000
  S   S5        1.0  0.6822475389053579  0.11278040532488376  0.9898719284683466  1.0000
  S   S6        1.0  0.5789972676720936  0.01871436499641277  0.9262191329034977  1.0000
  S   S7        1.0  0.7342967670410872  0.19023203488904983  0.6455246459227055  1.0000
  S   S8        1.0  0.8783521284567541  0.3582874002167955  0.7995875190244988  1.0000
data_image84
_chemical_formula_structural       H16S8
_chemical_formula_sum              "H16 S8"
_cell_length_a       8.83753075774048
_cell_length_b       8.83753075774048
_cell_length_c       8.83753075774048
_cell_angle_alpha    118.690318510586
_cell_angle_beta     118.69031851058598
_cell_angle_gamma    92.28380992055807

_space_group_name_H-M_alt    "P 1"
_space_group_IT_number       1

loop_
  _space_group_symop_operation_xyz
  'x, y, z'

loop_
  _atom_site_type_symbol
  _atom_site_label
  _atom_site_symmetry_multiplicity
  _atom_site_fract_x
  _atom_site_fract_y
  _atom_site_fract_z
  _atom_site_occupancy
  H   H1        1.0  0.12348554516211152  0.8419169441331178  0.7923457014840096  1.0000
  H   H2        1.0  0.0640846521127969  0.23915354569908231  0.3109269314445555  1.0000
  H   H3        1.0  0.6722349169431254  0.9087890235241503  0.6999539311509579  1.0000
  H   H4        1.0  0.9296071936842054  0.36103523056954145  0.46337665407918394  1.0000
  H   H5        1.0  0.185106789926067  0.9647725809045369  0.036837631720118225  1.0000
  H   H6        1.0  0.15806754119694233  0.7376900501549244  0.6980967707931995  1.0000
  H   H7        1.0  0.5743651962839067  0.10155693255364895  0.4518785970285535  1.0000
  H   H8        1.0  0.9149179338128306  0.2698519767727703  0.12230882560834289  1.0000
  H   H9        1.0  0.491209274623543  0.371901206439361  0.00032145995646715164  1.0000
  H   H10       1.0  0.29716829530661926  0.4860005774535239  0.1016565547324717  1.0000
  H   H11       1.0  0.2983891637995839  0.9848641674034297  0.11306140525266528  1.0000
  H   H12       1.0  0.9677192037925124  0.3674327665939927  0.8164788112044334  1.0000
  H   H13       1.0  0.38539192848838866  0.9128353542182595  0.013665321748703718  1.0000
  H   H14       1.0  0.25697681680321693  0.7413958460092545  0.1152777448296547  1.0000
  H   H15       1.0  0.6863828785717487  0.775517325848341  0.9390520080924034  1.0000
  H   H16       1.0  0.06184516800567508  0.6652490620617755  0.5933038205257617  1.0000
  S   S1        1.0  0.2979379457538016  0.6561508289014455  0.49137698307458777  1.0000
  S   S2        1.0  0.7174010848393664  0.12328747590072453  0.9397566608386114  1.0000
  S   S3        1.0  0.28609525673891767  0.26522272860165685  0.2931103405317117  1.0000
  S   S4        1.0  0.49456949980231  0.7047943347133696  0.4565844803582877  1.0000
  S   S5        1.0  0.1785954817023594  0.13184501288924366  0.6957600205205381  1.0000
  S   S6        1.0  0.3882798966806149  0.8690940513042733  0.8848806796886493  1.0000
  S   S7        1.0  0.016322578536346555  0.5538337716134265  0.7005196525133215  1.0000
  S   S8        1.0  0.43073263399128336  0.7343762578675523  0.20891342544928193  1.0000
data_image85
_chemical_formula_structural       H16S8
_chemical_formula_sum              "H16 S8"
_cell_length_a       8.83753075774048
_cell_length_b       8.83753075774048
_cell_length_c       8.83753075774048
_cell_angle_alpha    118.690318510586
_cell_angle_beta     118.69031851058598
_cell_angle_gamma    92.28380992055807

_space_group_name_H-M_alt    "P 1"
_space_group_IT_number       1

loop_
  _space_group_symop_operation_xyz
  'x, y, z'

loop_
  _atom_site_type_symbol
  _atom_site_label
  _atom_site_symmetry_multiplicity
  _atom_site_fract_x
  _atom_site_fract_y
  _atom_site_fract_z
  _atom_site_occupancy
  H   H1        1.0  0.05334093002602458  0.5711484821513295  0.8461292814463377  1.0000
  H   H2        1.0  0.6540199287701398  0.4823851853143424  0.1061046039685607  1.0000
  H   H3        1.0  0.8877416483592242  0.8819274250417948  0.4502167101018131  1.0000
  H   H4        1.0  0.7215118936728686  0.4043885360006243  0.31038035405799747  1.0000
  H   H5        1.0  0.48663302324712276  0.3429020479670726  0.9617705791024491  1.0000
  H   H6        1.0  0.49037973023951054  0.37006647884845734  0.6461599096655846  1.0000
  H   H7        1.0  0.8072439269162714  0.3038686588406563  0.9566015331074595  1.0000
  H   H8        1.0  0.4840285243699327  0.36866086709778756  0.2401107985060662  1.0000
  H   H9        1.0  0.5642184438183904  0.7221994911087677  0.15897194761782885  1.0000
  H   H10       1.0  0.2953009274788201  0.9341620525810868  0.9500994414556772  1.0000
  H   H11       1.0  0.3880771463736892  0.4592648088000715  0.7820022748783231  1.0000
  H   H12       1.0  0.49714696779847145  0.8384605012834072  0.4045396326109767  1.0000
  H   H13       1.0  0.7046594371204264  0.9111222901265137  0.8671368609066121  1.0000
  H   H14       1.0  0.040283285081386566  0.3903364725410938  0.6977887563407421  1.0000
  H   H15       1.0  0.9213385954499245  0.6220160983502865  0.05359269306063652  1.0000
  H   H16       1.0  0.050967018119990826  0.5643483743187971  0.6339561304193921  1.0000
  S   S1        1.0  0.005328631086740643  0.32832691198564135  0.4717183495085919  1.0000
  S   S2        1.0  0.7174742933129892  0.6653391201980412  0.054529726039618254  1.0000
  S   S3        1.0  0.7159911540875328  0.7900561986607499  0.5879249903082382  1.0000
  S   S4        1.0  0.6825021163676865  0.12644252949394286  0.7276542569743469  1.0000
  S   S5        1.0  0.5739457660529297  0.2060833846917376  0.2763797650113702  1.0000
  S   S6        1.0  0.1443214001119486  0.21306222752900794  0.0896175725501962  1.0000
  S   S7        1.0  0.1200657524750568  0.6418497286504135  0.9371976342226844  1.0000
  S   S8        1.0  0.4102197807224002  0.43057571328245103  0.0836414844961837  1.0000
data_image86
_chemical_formula_structural       H16S8
_chemical_formula_sum              "H16 S8"
_cell_length_a       8.83753075774048
_cell_length_b       8.83753075774048
_cell_length_c       8.83753075774048
_cell_angle_alpha    118.690318510586
_cell_angle_beta     118.69031851058598
_cell_angle_gamma    92.28380992055807

_space_group_name_H-M_alt    "P 1"
_space_group_IT_number       1

loop_
  _space_group_symop_operation_xyz
  'x, y, z'

loop_
  _atom_site_type_symbol
  _atom_site_label
  _atom_site_symmetry_multiplicity
  _atom_site_fract_x
  _atom_site_fract_y
  _atom_site_fract_z
  _atom_site_occupancy
  H   H1        1.0  0.6029225597158074  0.4587745910976082  0.5270749093033373  1.0000
  H   H2        1.0  0.33878266625106335  0.5673347413539886  0.754359969869256  1.0000
  H   H3        1.0  0.10169550240971148  0.6139563340693712  0.05124937812797725  1.0000
  H   H4        1.0  0.8764128433540463  0.1321863739285618  0.6941677280701697  1.0000
  H   H5        1.0  0.9802156520308927  0.2226473079645075  0.813779252988752  1.0000
  H   H6        1.0  0.46383077278733253  0.3509399965405464  0.6354080103337765  1.0000
  H   H7        1.0  0.7349146963097155  0.03598050610162318  0.5143761825747788  1.0000
  H   H8        1.0  0.026330726454034448  0.06001401715911925  0.133641128661111  1.0000
  H   H9        1.0  0.3885958099272102  0.6484607177553698  0.8715971834026277  1.0000
  H   H10       1.0  0.23578393552452326  0.5709371173288673  0.10413009952753782  1.0000
  H   H11       1.0  0.37164426827803254  0.21649764338508248  0.7802712493576109  1.0000
  H   H12       1.0  0.9044683445245028  0.7277352353557944  0.9049218215513974  1.0000
  H   H13       1.0  0.9699907894828357  0.4838020335882902  0.7021439603995532  1.0000
  H   H14       1.0  0.9608833035454154  0.907426355406642  0.7577218152582645  1.0000
  H   H15       1.0  0.7316549196839333  0.6701625604182482  0.9520185813307762  1.0000
  H   H16       1.0  0.23711264273151755  0.31958362308796495  0.8258827447425574  1.0000
  S   S1        1.0  0.5514723046217114  0.7242293503077235  0.5699084049410885  1.0000
  S   S2        1.0  0.5032662778394297  0.8077604534337297  0.588229690794833  1.0000
  S   S3        1.0  0.4088267771912797  0.2303222714108415  0.1336439306178363  1.0000
  S   S4        1.0  0.3638090620515868  0.9426825693808496  0.9100870640832  1.0000
  S   S5        1.0  0.7289276884694118  0.9374208456138149  0.45827005663886666  1.0000
  S   S6        1.0  0.21220098649791908  0.9606962958932854  0.732239752629539  1.0000
  S   S7        1.0  0.5570893257390708  0.08777696709148586  0.5858173617743887  1.0000
  S   S8        1.0  0.9400423986517126  0.026157403946854174  0.5898964310763404  1.0000
data_image87
_chemical_formula_structural       H16S8
_chemical_formula_sum              "H16 S8"
_cell_length_a       8.83753075774048
_cell_length_b       8.83753075774048
_cell_length_c       8.83753075774048
_cell_angle_alpha    118.690318510586
_cell_angle_beta     118.69031851058598
_cell_angle_gamma    92.28380992055807

_space_group_name_H-M_alt    "P 1"
_space_group_IT_number       1

loop_
  _space_group_symop_operation_xyz
  'x, y, z'

loop_
  _atom_site_type_symbol
  _atom_site_label
  _atom_site_symmetry_multiplicity
  _atom_site_fract_x
  _atom_site_fract_y
  _atom_site_fract_z
  _atom_site_occupancy
  H   H1        1.0  0.8334778109565377  0.7293853189330548  0.7824821057729423  1.0000
  H   H2        1.0  0.7602298301644623  0.43886918912176043  0.48873668210580945  1.0000
  H   H3        1.0  0.1604658649303019  0.4461120581254363  0.6213898519054055  1.0000
  H   H4        1.0  0.8874607859179378  0.30225711362436414  0.3795440422836691  1.0000
  H   H5        1.0  0.7717555815470405  0.5191178097156808  0.4023071455740137  1.0000
  H   H6        1.0  0.5441909469664097  0.15598548389971256  0.42769936844706535  1.0000
  H   H7        1.0  0.4818434496410191  0.4972461159341037  0.6568239601328969  1.0000
  H   H8        1.0  0.9905522395856678  0.45917196304071695  0.5686502126045525  1.0000
  H   H9        1.0  0.22974280978087336  0.66497533605434  0.8012534389272332  1.0000
  H   H10       1.0  0.29639924253569916  0.5392507908400148  0.313798921124544  1.0000
  H   H11       1.0  0.582833238877356  0.6324998177587986  0.7566480692476034  1.0000
  H   H12       1.0  0.9894429547712207  0.7891802256926894  0.09778435830958188  1.0000
  H   H13       1.0  0.9790820455527864  0.4702367225836497  0.4767885142355226  1.0000
  H   H14       1.0  0.9584277477115393  0.18410229869186878  0.6553345695137978  1.0000
  H   H15       1.0  0.25450359657406807  0.4223874304443598  0.1049728412181139  1.0000
  H   H16       1.0  0.7609308091923594  0.6254283273010515  0.5348882510443218  1.0000
  S   S1        1.0  0.5178187025885563  0.7270748843002366  0.9320719991228543  1.0000
  S   S2        1.0  0.20169030874967575  0.14144096593372524  0.46138207463081926  1.0000
  S   S3        1.0  0.31833845071378164  0.6453551833983511  0.41560273720824625  1.0000
  S   S4        1.0  0.550729641050566  0.026723110117018223  0.05245407827896997  1.0000
  S   S5        1.0  0.5380418660934083  0.6943654034985229  0.6859271805733442  1.0000
  S   S6        1.0  0.7394245230607339  0.9692811882123351  0.48200904529949185  1.0000
  S   S7        1.0  0.7855915683321655  0.5572008978342637  0.186704227788141  1.0000
  S   S8        1.0  0.7684046026406577  0.841739694820717  0.35597959673032165  1.0000
data_image88
_chemical_formula_structural       H16S8
_chemical_formula_sum              "H16 S8"
_cell_length_a       8.83753075774048
_cell_length_b       8.83753075774048
_cell_length_c       8.83753075774048
_cell_angle_alpha    118.690318510586
_cell_angle_beta     118.69031851058598
_cell_angle_gamma    92.28380992055807

_space_group_name_H-M_alt    "P 1"
_space_group_IT_number       1

loop_
  _space_group_symop_operation_xyz
  'x, y, z'

loop_
  _atom_site_type_symbol
  _atom_site_label
  _atom_site_symmetry_multiplicity
  _atom_site_fract_x
  _atom_site_fract_y
  _atom_site_fract_z
  _atom_site_occupancy
  H   H1        1.0  0.1756276930682361  0.8188513687346131  0.5981917099561542  1.0000
  H   H2        1.0  0.019769201637245715  0.4788863337598741  0.024928761878982186  1.0000
  H   H3        1.0  0.26311030983924866  0.5518239107914269  0.8320431325118989  1.0000
  H   H4        1.0  0.8578021596185863  0.7835389610845596  0.8206651331856847  1.0000
  H   H5        1.0  0.7240984526579268  0.475165422889404  0.7870286422839854  1.0000
  H   H6        1.0  0.9488563481718302  0.5504877846688032  0.09815153479576111  1.0000
  H   H7        1.0  0.5933965868316591  0.7051962120458484  0.7197269517928362  1.0000
  H   H8        1.0  0.44291674077976495  0.8877961974358186  0.5601740358397365  1.0000
  H   H9        1.0  0.16415629093535244  0.9621768044307828  0.6472662524320185  1.0000
  H   H10       1.0  0.8640587955596857  0.4426728228572756  0.324563286092598  1.0000
  H   H11       1.0  0.47791767679154873  0.7865436682477593  0.3527269917540252  1.0000
  H   H12       1.0  0.16647811327129602  0.8321603536605835  0.4900184548459947  1.0000
  H   H13       1.0  0.8280763502261834  0.4112297665415099  0.43319220072589815  1.0000
  H   H14       1.0  0.9645619252696633  0.4785640500485897  0.8214413300156593  1.0000
  H   H15       1.0  0.1523808166384697  0.051294438540935516  0.2802711986005306  1.0000
  H   H16       1.0  0.974573727697134  0.5339105369639583  0.5678411454427987  1.0000
  S   S1        1.0  0.13857066706987098  0.9904064064539853  0.36622551229811506  1.0000
  S   S2        1.0  0.6938240361632779  0.907649363274686  0.29283144732471555  1.0000
  S   S3        1.0  0.4357596716945409  0.3881573216058314  0.7504061190702487  1.0000
  S   S4        1.0  0.7763989797676913  0.8096396187320352  0.3037384841009043  1.0000
  S   S5        1.0  0.12589171843137592  0.038692140369676054  0.8714802239555866  1.0000
  S   S6        1.0  0.27357806940563023  0.06473352352622896  0.7230568220038549  1.0000
  S   S7        1.0  0.8052935592131689  0.6036064469953999  0.03184440662153065  1.0000
  S   S8        1.0  0.7434721844037995  0.6962599579710513  0.6252201669849455  1.0000
data_image89
_chemical_formula_structural       H16S8
_chemical_formula_sum              "H16 S8"
_cell_length_a       8.83753075774048
_cell_length_b       8.83753075774048
_cell_length_c       8.83753075774048
_cell_angle_alpha    118.690318510586
_cell_angle_beta     118.69031851058598
_cell_angle_gamma    92.28380992055807

_space_group_name_H-M_alt    "P 1"
_space_group_IT_number       1

loop_
  _space_group_symop_operation_xyz
  'x, y, z'

loop_
  _atom_site_type_symbol
  _atom_site_label
  _atom_site_symmetry_multiplicity
  _atom_site_fract_x
  _atom_site_fract_y
  _atom_site_fract_z
  _atom_site_occupancy
  H   H1        1.0  0.8346785213798285  0.21911893924698234  0.8463102483656257  1.0000
  H   H2        1.0  0.3806886317906901  0.2862832157406956  0.30884307133965194  1.0000
  H   H3        1.0  0.7483015502803028  0.5801826948300004  0.9986558973323554  1.0000
  H   H4        1.0  0.06031091185286641  0.8432630368042737  0.27679296070709825  1.0000
  H   H5        1.0  0.20376156736165285  0.7477324615465477  0.3636121639283374  1.0000
  H   H6        1.0  0.43124210089445114  0.3578474596142769  0.677023783326149  1.0000
  H   H7        1.0  0.8934595817700028  0.19442535704001784  0.847802422940731  1.0000
  H   H8        1.0  0.1869517330196686  0.41131225251592696  0.8720913575962186  1.0000
  H   H9        1.0  0.8403490791097283  0.8509000029880553  0.9401825265958905  1.0000
  H   H10       1.0  0.11652843136107549  0.1258122839499265  0.7231558146304451  1.0000
  H   H11       1.0  0.08788980729877949  0.3120051138103008  0.31715779984369874  1.0000
  H   H12       1.0  0.9482399197295308  0.4455260382965207  0.9753218644764274  1.0000
  H   H13       1.0  0.310900369520823  0.9132795115692716  0.5251050331862643  1.0000
  H   H14       1.0  0.02763034775853157  0.09616736695170403  0.8353424519300461  1.0000
  H   H15       1.0  0.14573371782898903  0.3013067878782749  0.4959285221993923  1.0000
  H   H16       1.0  0.7722594444639981  0.6676380221615545  0.26680479396600276  1.0000
  S   S1        1.0  0.5053084928367753  0.4531209794804454  0.9853899296358577  1.0000
  S   S2        1.0  0.139078734559007  0.559632525080815  0.2145172543823719  1.0000
  S   S3        1.0  0.21667499518662225  0.8140043492312543  0.3526196911552688  1.0000
  S   S4        1.0  0.4186966501874849  0.2787278509931639  0.4781395412865095  1.0000
  S   S5        1.0  0.11737024580361322  0.15985447575803846  0.43685355014167726  1.0000
  S   S6        1.0  0.17615292367190705  0.016623516276013106  0.7670091297623003  1.0000
  S   S7        1.0  0.5054152795346454  0.3742108630249277  0.29683395579922944  1.0000
  S   S8        1.0  0.8105877490525017  0.47177647531498224  0.8143994940910488  1.0000
data_image90
_chemical_formula_structural       H16S8
_chemical_formula_sum              "H16 S8"
_cell_length_a       8.83753075774048
_cell_length_b       8.83753075774048
_cell_length_c       8.83753075774048
_cell_angle_alpha    118.690318510586
_cell_angle_beta     118.69031851058598
_cell_angle_gamma    92.28380992055807

_space_group_name_H-M_alt    "P 1"
_space_group_IT_number       1

loop_
  _space_group_symop_operation_xyz
  'x, y, z'

loop_
  _atom_site_type_symbol
  _atom_site_label
  _atom_site_symmetry_multiplicity
  _atom_site_fract_x
  _atom_site_fract_y
  _atom_site_fract_z
  _atom_site_occupancy
  H   H1        1.0  0.043991729617118835  0.18007816653698683  0.38739599590189755  1.0000
  H   H2        1.0  0.223996204091236  0.40655106073245406  0.45001907995902  1.0000
  H   H3        1.0  0.5173905326519161  0.09663284849375486  0.5938409368973225  1.0000
  H   H4        1.0  0.5280032500158995  0.4997864505276084  0.1293259075609967  1.0000
  H   H5        1.0  0.5987186853308231  0.1433201106847264  0.5343325400463073  1.0000
  H   H6        1.0  0.9250334072858095  0.12543292529881  0.2528664954006672  1.0000
  H   H7        1.0  0.943555754609406  0.8548755026422441  0.009323777630925179  1.0000
  H   H8        1.0  0.007031556247966364  0.8580659223953262  0.9475710326805711  1.0000
  H   H9        1.0  0.2988738410640508  0.4699439911637455  0.2325855130329728  1.0000
  H   H10       1.0  0.03517530165845528  0.4408076691906899  0.8723819141741842  1.0000
  H   H11       1.0  0.30952064460143447  0.06203728262335062  0.1957374014891684  1.0000
  H   H12       1.0  0.11691850144416094  0.11771417316049337  0.08823439315892756  1.0000
  H   H13       1.0  0.01053064460211317  0.844909799796369  0.9153939668321982  1.0000
  H   H14       1.0  0.9231534479185939  0.22633021138608456  0.59644366055727  1.0000
  H   H15       1.0  0.38153940066695213  0.9673161245882511  0.9221295490860939  1.0000
  H   H16       1.0  0.743928843177855  0.2078689378395211  0.5969729539938271  1.0000
  S   S1        1.0  0.27978962747147307  0.7990475698607042  0.31940138211939484  1.0000
  S   S2        1.0  0.21540811273735017  0.9013670962303877  0.10620919778011739  1.0000
  S   S3        1.0  0.5950505157816224  0.06824269430944696  0.8371494209495722  1.0000
  S   S4        1.0  0.32274371245875955  0.9812792928423733  0.30540764587931335  1.0000
  S   S5        1.0  0.6779049499309622  0.8956417698645964  0.6647572235669941  1.0000
  S   S6        1.0  0.37981898323778296  0.97880787064787  0.7615933241977473  1.0000
  S   S7        1.0  0.5775667175767012  0.9829576064366847  0.38554182404186577  1.0000
  S   S8        1.0  0.5541223611871828  0.11204226582776755  0.398170369444415  1.0000
data_image91
_chemical_formula_structural       H16S8
_chemical_formula_sum              "H16 S8"
_cell_length_a       8.83753075774048
_cell_length_b       8.83753075774048
_cell_length_c       8.83753075774048
_cell_angle_alpha    118.690318510586
_cell_angle_beta     118.69031851058598
_cell_angle_gamma    92.28380992055807

_space_group_name_H-M_alt    "P 1"
_space_group_IT_number       1

loop_
  _space_group_symop_operation_xyz
  'x, y, z'

loop_
  _atom_site_type_symbol
  _atom_site_label
  _atom_site_symmetry_multiplicity
  _atom_site_fract_x
  _atom_site_fract_y
  _atom_site_fract_z
  _atom_site_occupancy
  H   H1        1.0  0.7853630702011287  0.5503066836390644  0.5062896416056901  1.0000
  H   H2        1.0  0.8745802830089815  0.2920295190997422  0.833521774969995  1.0000
  H   H3        1.0  0.8913534188177437  0.7419641674496233  0.17451318819075823  1.0000
  H   H4        1.0  0.5782655386719853  0.7512494346592575  0.7312288801185787  1.0000
  H   H5        1.0  0.7613215829478577  0.010214538080617785  0.3138517046754714  1.0000
  H   H6        1.0  0.8953486308455467  0.06084379926323891  0.2295912727713585  1.0000
  H   H7        1.0  0.4216722445562482  0.25853897049091756  0.8248792225494981  1.0000
  H   H8        1.0  0.3186189425905468  0.7506000980501994  0.5420809295028448  1.0000
  H   H9        1.0  0.1665459289215505  0.8189603697974235  0.5550397434271872  1.0000
  H   H10       1.0  0.12246197619242594  0.7777723746839911  0.9778534696088172  1.0000
  H   H11       1.0  0.40025194687768817  0.20454268949106336  0.5634754463098943  1.0000
  H   H12       1.0  0.43023936729878187  0.7765239654108882  0.6997854518704116  1.0000
  H   H13       1.0  0.27185997124252026  0.5595070572262557  0.2775099198333919  1.0000
  H   H14       1.0  0.8139515090733767  0.5892311483621597  0.10006224364042282  1.0000
  H   H15       1.0  0.3429137356579304  0.25333324261009693  0.9450243450701237  1.0000
  H   H16       1.0  0.46878313599154353  0.4328825422853697  0.8053995493683033  1.0000
  S   S1        1.0  0.33089865918736905  0.12064683713833801  0.6254843929491471  1.0000
  S   S2        1.0  0.6338911736384034  0.3742922965902835  0.8988424916751683  1.0000
  S   S3        1.0  0.1902325785231369  0.7709224085556343  0.4007560854515759  1.0000
  S   S4        1.0  0.9084600617643446  0.5968712086323649  0.3382970943348482  1.0000
  S   S5        1.0  0.4889329581637867  0.9010325494455174  0.8907322925515473  1.0000
  S   S6        1.0  0.6779060414846754  0.79160110472003  0.06328207720071077  1.0000
  S   S7        1.0  0.5562432136503048  0.688001760863699  0.26403758040396497  1.0000
  S   S8        1.0  0.6288628806651104  0.1094864746555686  0.3796872082166374  1.0000
data_image92
_chemical_formula_structural       H16S8
_chemical_formula_sum              "H16 S8"
_cell_length_a       8.83753075774048
_cell_length_b       8.83753075774048
_cell_length_c       8.83753075774048
_cell_angle_alpha    118.690318510586
_cell_angle_beta     118.69031851058598
_cell_angle_gamma    92.28380992055807

_space_group_name_H-M_alt    "P 1"
_space_group_IT_number       1

loop_
  _space_group_symop_operation_xyz
  'x, y, z'

loop_
  _atom_site_type_symbol
  _atom_site_label
  _atom_site_symmetry_multiplicity
  _atom_site_fract_x
  _atom_site_fract_y
  _atom_site_fract_z
  _atom_site_occupancy
  H   H1        1.0  0.3793043466284871  0.9580251981969923  0.9055195371620357  1.0000
  H   H2        1.0  0.9007615591981448  0.39547903602942824  0.20869689504615963  1.0000
  H   H3        1.0  0.6435702103190124  0.775575450155884  0.8327518631704152  1.0000
  H   H4        1.0  0.08454384817741811  0.27546210098080337  0.0901593592716381  1.0000
  H   H5        1.0  0.8478287952602841  0.899056333815679  0.4926109977532178  1.0000
  H   H6        1.0  0.19176311790943146  0.42926182225346565  0.5343690887093544  1.0000
  H   H7        1.0  0.9609901439398527  0.8288924992084503  0.3692650431767106  1.0000
  H   H8        1.0  0.4485928220237838  0.43743900512345135  0.4804098419845104  1.0000
  H   H9        1.0  0.3818093710578978  0.8058048351667821  0.2795978677459061  1.0000
  H   H10       1.0  0.7868716836674139  0.7088830643333495  0.20202442532172427  1.0000
  H   H11       1.0  0.422292566858232  0.6172497598454356  0.1529685934074223  1.0000
  H   H12       1.0  0.9212422603741288  0.10434641595929861  0.35336979338899255  1.0000
  H   H13       1.0  0.6195654843468219  0.6616851706289708  0.16287850122898817  1.0000
  H   H14       1.0  0.25736730732023716  0.8552652765065432  0.14467249065637589  1.0000
  H   H15       1.0  0.8943105563521385  0.8663960546255112  0.49107118882238865  1.0000
  H   H16       1.0  0.09636021871119738  0.7091988984611817  0.582866111304611  1.0000
  S   S1        1.0  0.8970700675854459  0.5984407961077522  0.14321406561066397  1.0000
  S   S2        1.0  0.6754213514504954  0.34774330991785973  0.1391349104233086  1.0000
  S   S3        1.0  0.2662024218197985  0.5476025294628926  0.12114800518611446  1.0000
  S   S4        1.0  0.05026529630413279  0.17345772043336183  0.5451961484795902  1.0000
  S   S5        1.0  0.12581745657371357  0.2434135819785297  0.5345922792330384  1.0000
  S   S6        1.0  0.5811655490288103  0.2997043846407905  0.46797430251172045  1.0000
  S   S7        1.0  0.41039317613467574  0.000256100669503212  0.38125527763622813  1.0000
  S   S8        1.0  0.6596301766840043  0.7214367854176089  0.9425244426820427  1.0000
data_image93
_chemical_formula_structural       H16S8
_chemical_formula_sum              "H16 S8"
_cell_length_a       8.83753075774048
_cell_length_b       8.83753075774048
_cell_length_c       8.83753075774048
_cell_angle_alpha    118.690318510586
_cell_angle_beta     118.69031851058598
_cell_angle_gamma    92.28380992055807

_space_group_name_H-M_alt    "P 1"
_space_group_IT_number       1

loop_
  _space_group_symop_operation_xyz
  'x, y, z'

loop_
  _atom_site_type_symbol
  _atom_site_label
  _atom_site_symmetry_multiplicity
  _atom_site_fract_x
  _atom_site_fract_y
  _atom_site_fract_z
  _atom_site_occupancy
  H   H1        1.0  0.1345919193699956  0.4511467362754047  0.5223798048682511  1.0000
  H   H2        1.0  0.1969826432177797  0.44992800964973867  0.5543740577995777  1.0000
  H   H3        1.0  0.29615413839928806  0.05528568336740136  0.505895021604374  1.0000
  H   H4        1.0  0.8974017142318189  0.6633542024064809  0.6334526321152225  1.0000
  H   H5        1.0  0.14636924990918487  0.4993910373887047  0.7480977117011207  1.0000
  H   H6        1.0  0.828980004414916  0.18673649802803993  0.41005372256040573  1.0000
  H   H7        1.0  0.38069700356572866  0.9285647631622851  0.7373887170106173  1.0000
  H   H8        1.0  0.2836236075281704  0.4377140620490536  0.34922007052227855  1.0000
  H   H9        1.0  0.6014848523773253  0.7021551830694079  0.8505555470474064  1.0000
  H   H10       1.0  0.6470027858158574  0.34115479071624577  0.16372929280623794  1.0000
  H   H11       1.0  0.23655310785397887  0.6510734246112406  0.5383272143080831  1.0000
  H   H12       1.0  0.4581001652404666  0.03918629791587591  0.9933902899501845  1.0000
  H   H13       1.0  0.3825337337293604  0.7871391004446195  0.6651929031359032  1.0000
  H   H14       1.0  0.38366310577839613  0.9174251295626163  0.47340572252869606  1.0000
  H   H15       1.0  0.520350556820631  0.590649401769042  0.035405946895480156  1.0000
  H   H16       1.0  0.37345320638269186  0.8575806517037563  0.8251374174142256  1.0000
  S   S1        1.0  0.6929686617804691  0.14627446301165037  0.8556811664020643  1.0000
  S   S2        1.0  0.32677710452117026  0.0408072053687647  0.17944784287828952  1.0000
  S   S3        1.0  0.35843225596772754  0.3516963786096312  0.09530293807620183  1.0000
  S   S4        1.0  0.831674835877493  0.9309589691692963  0.675138205406256  1.0000
  S   S5        1.0  0.7398448659223504  0.7919856498483568  0.7319010391365737  1.0000
  S   S6        1.0  0.29580831349449  0.6798543715849519  0.9752660710946657  1.0000
  S   S7        1.0  0.6766533686895855  0.2706518246559426  0.11077139899134636  1.0000
  S   S8        1.0  0.11783067460055463  0.39138242811895907  0.8347487632418051  1.0000
data_image94
_chemical_formula_structural       H16S8
_chemical_formula_sum              "H16 S8"
_cell_length_a       8.83753075774048
_cell_length_b       8.83753075774048
_cell_length_c       8.83753075774048
_cell_angle_alpha    118.690318510586
_cell_angle_beta     118.69031851058598
_cell_angle_gamma    92.28380992055807

_space_group_name_H-M_alt    "P 1"
_space_group_IT_number       1

loop_
  _space_group_symop_operation_xyz
  'x, y, z'

loop_
  _atom_site_type_symbol
  _atom_site_label
  _atom_site_symmetry_multiplicity
  _atom_site_fract_x
  _atom_site_fract_y
  _atom_site_fract_z
  _atom_site_occupancy
  H   H1        1.0  0.5475084143690765  0.4047990548424423  0.8943538677413017  1.0000
  H   H2        1.0  0.18111628032056615  0.7259614858776331  0.3795721472706646  1.0000
  H   H3        1.0  0.9357266398146749  0.539696688298136  0.3000678759999573  1.0000
  H   H4        1.0  0.2938516363501549  0.07266602898016572  0.18675854476168752  1.0000
  H   H5        1.0  0.24628857435891405  0.9119429877027869  0.5984255799849052  1.0000
  H   H6        1.0  0.38480345718562603  0.5063278283923864  0.9426871538162231  1.0000
  H   H7        1.0  0.8028604192659259  0.4445588863454759  0.8175939274951816  1.0000
  H   H8        1.0  0.8314724952397228  0.6034999619005248  0.1411603856831789  1.0000
  H   H9        1.0  0.4152348634088412  0.2701554923551157  0.004591390024870634  1.0000
  H   H10       1.0  0.1592380371876061  0.05026119342073798  0.9886125830817036  1.0000
  H   H11       1.0  0.3869836637750268  0.24848388694226742  0.6833433792926371  1.0000
  H   H12       1.0  0.5040082409977913  0.8511797897517681  0.038753017666749656  1.0000
  H   H13       1.0  0.8127343097767152  0.22438100216368184  0.39531489845830947  1.0000
  H   H14       1.0  0.9560861578211188  0.9894668124616146  0.6754018478095531  1.0000
  H   H15       1.0  0.8651912622153759  0.18786233477294445  0.5443127583712339  1.0000
  H   H16       1.0  0.5848696469329298  0.7839891236799303  0.12163283175323159  1.0000
  S   S1        1.0  0.8673791292821988  0.33997715695295483  0.21566493983846158  1.0000
  S   S2        1.0  0.14289910218212754  0.8980971970595419  0.8623259954620153  1.0000
  S   S3        1.0  0.43121587141934015  0.8112276382162236  0.017273071949603036  1.0000
  S   S4        1.0  0.5742708600882906  0.10958462534472346  0.16144622134743258  1.0000
  S   S5        1.0  0.6392971909954213  0.21267768915276974  0.6392771266400814  1.0000
  S   S6        1.0  0.8016648778720992  0.18734959873836488  0.071835233319689  1.0000
  S   S7        1.0  0.603070338955149  0.426779504166916  0.9063523439981509  1.0000
  S   S8        1.0  0.7222990137015586  0.7192678734427318  0.7263051895424724  1.0000
data_image95
_chemical_formula_structural       H16S8
_chemical_formula_sum              "H16 S8"
_cell_length_a       8.83753075774048
_cell_length_b       8.83753075774048
_cell_length_c       8.83753075774048
_cell_angle_alpha    118.690318510586
_cell_angle_beta     118.69031851058598
_cell_angle_gamma    92.28380992055807

_space_group_name_H-M_alt    "P 1"
_space_group_IT_number       1

loop_
  _space_group_symop_operation_xyz
  'x, y, z'

loop_
  _atom_site_type_symbol
  _atom_site_label
  _atom_site_symmetry_multiplicity
  _atom_site_fract_x
  _atom_site_fract_y
  _atom_site_fract_z
  _atom_site_occupancy
  H   H1        1.0  0.04642171040177345  0.2159622733015567  0.9716429577674717  1.0000
  H   H2        1.0  0.7703672186471522  0.5781561429612339  0.8108533793129027  1.0000
  H   H3        1.0  0.33622721186839044  0.5097137130796909  0.0783374069724232  1.0000
  H   H4        1.0  0.1536432015709579  0.5250979212578386  0.7766685346141458  1.0000
  H   H5        1.0  0.07225421664770693  0.9482484803302214  0.1263053219227004  1.0000
  H   H6        1.0  0.7865844573825598  0.1982018444687128  0.10213332250714302  1.0000
  H   H7        1.0  0.23217054782435298  0.9727122716140002  0.07346319500356913  1.0000
  H   H8        1.0  0.8494708889156755  0.5573674164479598  0.18433674843981862  1.0000
  H   H9        1.0  0.21576673304662108  0.19927613344043493  0.4283471838571131  1.0000
  H   H10       1.0  0.32563056639628485  0.5673671350814402  0.702421942143701  1.0000
  H   H11       1.0  0.9917319854721427  0.36960495728999376  0.1888112211599946  1.0000
  H   H12       1.0  0.9668348329141736  0.521757478825748  0.12119441293179989  1.0000
  H   H13       1.0  0.4647125844785478  0.7152748704429541  0.1301724303048104  1.0000
  H   H14       1.0  0.6677428027614951  0.6690047904849052  0.1555350422859192  1.0000
  H   H15       1.0  0.45102542638778687  0.6894848644733429  0.4911557864397764  1.0000
  H   H16       1.0  0.831608016975224  0.8855668779578991  0.45077862386824563  1.0000
  S   S1        1.0  0.6155611901194789  0.639985553920269  0.6948974509723485  1.0000
  S   S2        1.0  0.09957150719128549  0.5822671070345677  0.2478623908245936  1.0000
  S   S3        1.0  0.1043465994109738  0.6668615774833597  0.1324940646882169  1.0000
  S   S4        1.0  0.002209695870988071  0.09558785345871001  0.7054434005112853  1.0000
  S   S5        1.0  0.24502321059117094  0.02354329393710941  0.2179120210930705  1.0000
  S   S6        1.0  0.01924215047620237  0.213721108448226  0.859312307293294  1.0000
  S   S7        1.0  0.9580983260530047  0.9292068768991157  0.31983532139565796  1.0000
  S   S8        1.0  0.27815489274507854  0.8410362544236705  0.6614277438493446  1.0000
data_image96
_chemical_formula_structural       H16S8
_chemical_formula_sum              "H16 S8"
_cell_length_a       8.83753075774048
_cell_length_b       8.83753075774048
_cell_length_c       8.83753075774048
_cell_angle_alpha    118.690318510586
_cell_angle_beta     118.69031851058598
_cell_angle_gamma    92.28380992055807

_space_group_name_H-M_alt    "P 1"
_space_group_IT_number       1

loop_
  _space_group_symop_operation_xyz
  'x, y, z'

loop_
  _atom_site_type_symbol
  _atom_site_label
  _atom_site_symmetry_multiplicity
  _atom_site_fract_x
  _atom_site_fract_y
  _atom_site_fract_z
  _atom_site_occupancy
  H   H1        1.0  0.05191345605999231  0.5180298511404544  0.6436053731013089  1.0000
  H   H2        1.0  0.9834805495920591  0.770374498097226  0.900044601643458  1.0000
  H   H3        1.0  0.28531081415712833  0.8902247711084783  0.08562339702621102  1.0000
  H   H4        1.0  0.8131508496589959  0.8047034947667271  0.8242677495582029  1.0000
  H   H5        1.0  0.1462888994719833  0.41426179773407057  0.18405465269461274  1.0000
  H   H6        1.0  0.1066529955714941  0.9757474232465029  0.8683120980858803  1.0000
  H   H7        1.0  0.8157957070507109  0.09042619145475328  0.21811865037307143  1.0000
  H   H8        1.0  0.052559787138307  0.3528304530773312  0.02152159996330738  1.0000
  H   H9        1.0  0.029007301200181246  0.567816604161635  0.5206067152321339  1.0000
  H   H10       1.0  0.7092679939814843  0.19572210381738842  0.13344824680825695  1.0000
  H   H11       1.0  0.9369781082496047  0.7232370832934976  0.9855146519839764  1.0000
  H   H12       1.0  0.04825435858219862  0.8385258857160807  0.9989221931318752  1.0000
  H   H13       1.0  0.4857702097087895  0.7729699084866297  0.8886719425208867  1.0000
  H   H14       1.0  0.08484709169715643  0.5956152882426977  0.0271683968603611  1.0000
  H   H15       1.0  0.08123181760311127  0.41335164196789265  0.4775221664458513  1.0000
  H   H16       1.0  0.3867634788621217  0.5486379461362958  0.5499251754954457  1.0000
  S   S1        1.0  0.19669744453858584  0.7780323173792567  0.7054349683749024  1.0000
  S   S2        1.0  0.42625368013978004  0.09313070459757  0.3611308563267812  1.0000
  S   S3        1.0  0.3223920322907361  0.5423281429102644  0.24017748155165464  1.0000
  S   S4        1.0  0.5729785898001865  0.7507695686072111  0.7017250541539397  1.0000
  S   S5        1.0  0.04572416434530169  0.459446951164864  0.3465572977438569  1.0000
  S   S6        1.0  0.4954203029628843  0.3051276843762025  0.7687760959779553  1.0000
  S   S7        1.0  0.4927996901678853  0.760951004223898  0.8926091024186462  1.0000
  S   S8        1.0  0.13420859057077905  0.3584393367636949  0.5139294910477474  1.0000
data_image97
_chemical_formula_structural       H16S8
_chemical_formula_sum              "H16 S8"
_cell_length_a       8.83753075774048
_cell_length_b       8.83753075774048
_cell_length_c       8.83753075774048
_cell_angle_alpha    118.690318510586
_cell_angle_beta     118.69031851058598
_cell_angle_gamma    92.28380992055807

_space_group_name_H-M_alt    "P 1"
_space_group_IT_number       1

loop_
  _space_group_symop_operation_xyz
  'x, y, z'

loop_
  _atom_site_type_symbol
  _atom_site_label
  _atom_site_symmetry_multiplicity
  _atom_site_fract_x
  _atom_site_fract_y
  _atom_site_fract_z
  _atom_site_occupancy
  H   H1        1.0  0.04046719614416361  0.04347287607379258  0.8746321129146963  1.0000
  H   H2        1.0  0.058974989398848265  0.8480807063169777  0.17882432416081429  1.0000
  H   H3        1.0  0.22273057606071234  0.9064008295536041  0.4245715409051627  1.0000
  H   H4        1.0  0.6178961351979524  0.0875586997717619  0.03727790538687259  1.0000
  H   H5        1.0  0.2715145634720102  0.8540131407789886  0.5163843682821607  1.0000
  H   H6        1.0  0.30125850811600685  0.2505184020847082  0.25207581371068954  1.0000
  H   H7        1.0  0.37516231602057815  0.036318010999821126  0.3836469599045813  1.0000
  H   H8        1.0  0.45136249141796725  0.34224989416543394  0.02683217916637659  1.0000
  H   H9        1.0  0.9386335916351527  0.9685557862976566  0.7260360941290855  1.0000
  H   H10       1.0  0.7907703922246583  0.6238843018654734  0.8180404115119018  1.0000
  H   H11       1.0  0.36513855028897524  0.426537761464715  0.047088609309867024  1.0000
  H   H12       1.0  0.2386742657981813  0.40488152019679546  0.6325142158311792  1.0000
  H   H13       1.0  0.11425182013772428  0.8403428243473172  0.6733445008285344  1.0000
  H   H14       1.0  0.16953127831220627  0.5984555073082447  0.6805957406759262  1.0000
  H   H15       1.0  0.31118326634168625  0.36823065392673016  0.8140195310115814  1.0000
  H   H16       1.0  0.8640183655079454  0.614476956310682  0.5167925564892357  1.0000
  S   S1        1.0  0.4220448240812402  0.6782923421123996  0.3981773570922087  1.0000
  S   S2        1.0  0.6740402013529092  0.7878473771270365  0.545487652416341  1.0000
  S   S3        1.0  0.5819979106563551  0.8364996919408441  0.37960484353243373  1.0000
  S   S4        1.0  0.5002345430257265  0.65655943879392  0.03361837219563313  1.0000
  S   S5        1.0  0.18585175275802612  0.5280006007524207  0.0862886521499604  1.0000
  S   S6        1.0  0.05804700177395716  0.9349418127676472  0.6528715703279886  1.0000
  S   S7        1.0  0.8687397608300671  0.11913558118976653  0.3702949922881089  1.0000
  S   S8        1.0  0.7037208026449662  0.5693343743914738  0.6874610056402162  1.0000
data_image98
_chemical_formula_structural       H16S8
_chemical_formula_sum              "H16 S8"
_cell_length_a       8.83753075774048
_cell_length_b       8.83753075774048
_cell_length_c       8.83753075774048
_cell_angle_alpha    118.690318510586
_cell_angle_beta     118.69031851058598
_cell_angle_gamma    92.28380992055807

_space_group_name_H-M_alt    "P 1"
_space_group_IT_number       1

loop_
  _space_group_symop_operation_xyz
  'x, y, z'

loop_
  _atom_site_type_symbol
  _atom_site_label
  _atom_site_symmetry_multiplicity
  _atom_site_fract_x
  _atom_site_fract_y
  _atom_site_fract_z
  _atom_site_occupancy
  H   H1        1.0  0.8491972321644425  0.8949165549129248  0.6359628369100392  1.0000
  H   H2        1.0  0.33325840381439775  0.5927303486969322  0.2600953821092844  1.0000
  H   H3        1.0  0.3868578195106238  0.34051043447107077  0.7990861642174423  1.0000
  H   H4        1.0  0.4766685855574906  0.4863398999441415  0.284328585723415  1.0000
  H   H5        1.0  0.4863458469044417  0.6667912716511637  0.837927987347939  1.0000
  H   H6        1.0  0.43450940772891045  0.4191589467227459  0.4885127507150173  1.0000
  H   H7        1.0  0.966585726942867  0.4891174811637029  0.4149014479480684  1.0000
  H   H8        1.0  0.48663357324767276  0.9371306905522943  0.16695425240322948  1.0000
  H   H9        1.0  0.6772567483130842  0.695282889995724  0.6218877187930048  1.0000
  H   H10       1.0  0.8961610562400892  0.328071798896417  0.25436044560046867  1.0000
  H   H11       1.0  0.5181218283250928  0.8267043586820364  0.9762718006968498  1.0000
  H   H12       1.0  0.16277525015175343  0.9739109743386507  0.11227169330231845  1.0000
  H   H13       1.0  0.340041802439373  0.8309016872663051  0.21642174595035613  1.0000
  H   H14       1.0  0.7578871678560972  0.991687249392271  0.8244760744273663  1.0000
  H   H15       1.0  0.48631472513079643  0.33917076885700226  0.6336286198347807  1.0000
  H   H16       1.0  0.1790003404021263  0.8080530777806416  0.47211169521324337  1.0000
  S   S1        1.0  0.7169956467696466  0.6177882794290781  0.6922384289582624  1.0000
  S   S2        1.0  0.12899879016913474  0.08448566356673837  0.9681022342992947  1.0000
  S   S3        1.0  0.5611683833558345  0.8407944150385447  0.002950149617390707  1.0000
  S   S4        1.0  0.2618336927553173  0.01663938199635595  0.8982930538186338  1.0000
  S   S5        1.0  0.9533208913635463  0.5022071808343753  0.04516965034417808  1.0000
  S   S6        1.0  0.7697093760361895  0.2600851630559191  0.7743316009546106  1.0000
  S   S7        1.0  0.6050602728500962  0.5460527969989926  0.762419484599377  1.0000
  S   S8        1.0  0.3643956734376843  0.05696208286099136  0.7478829263709486  1.0000
data_image99
_chemical_formula_structural       H16S8
_chemical_formula_sum              "H16 S8"
_cell_length_a       8.83753075774048
_cell_length_b       8.83753075774048
_cell_length_c       8.83753075774048
_cell_angle_alpha    118.690318510586
_cell_angle_beta     118.69031851058598
_cell_angle_gamma    92.28380992055807

_space_group_name_H-M_alt    "P 1"
_space_group_IT_number       1

loop_
  _space_group_symop_operation_xyz
  'x, y, z'

loop_
  _atom_site_type_symbol
  _atom_site_label
  _atom_site_symmetry_multiplicity
  _atom_site_fract_x
  _atom_site_fract_y
  _atom_site_fract_z
  _atom_site_occupancy
  H   H1        1.0  0.8728612693957984  0.6246560427825898  0.37532043224200606  1.0000
  H   H2        1.0  0.25019188289297745  0.5879486557096243  0.5273825384210795  1.0000
  H   H3        1.0  0.6245063578244299  0.4887357894331217  0.9763661234173924  1.0000
  H   H4        1.0  0.14921508263796568  0.11274776072241366  0.4912740734871477  1.0000
  H   H5        1.0  0.062419802416116  0.8457421667408198  0.8641404195514042  1.0000
  H   H6        1.0  0.3017380516976118  0.5384331457316875  0.11866652965545654  1.0000
  H   H7        1.0  0.8253769110888243  0.40627403336111456  0.4505810486152768  1.0000
  H   H8        1.0  0.19413673723465763  0.20523816480999812  0.35679919086396694  1.0000
  H   H9        1.0  0.5775922989705577  0.8297375260153785  0.9654721231199801  1.0000
  H   H10       1.0  0.564874435949605  0.2965169125236571  0.7320484993397258  1.0000
  H   H11       1.0  0.09311232529580593  0.692143440246582  0.5008430448360741  1.0000
  H   H12       1.0  0.7252529393881559  0.014269794337451458  0.24944426061119884  1.0000
  H   H13       1.0  0.41497603221796453  0.4942438898142427  0.6204180475324392  1.0000
  H   H14       1.0  0.6543921940028667  0.6335286498069763  0.4663296639919281  1.0000
  H   H15       1.0  0.6507212612777948  0.23772167600691319  0.2408013604581356  1.0000
  H   H16       1.0  0.36172500695101917  0.7266226242063567  0.9037683175265556  1.0000
  S   S1        1.0  0.8832314041937934  0.0870127197704278  0.4148067567275575  1.0000
  S   S2        1.0  0.2808781387284398  0.025382053921930492  0.2350809625349939  1.0000
  S   S3        1.0  0.9111237126708147  0.017905083252117038  0.5620269431092311  1.0000
  S   S4        1.0  0.741491027205484  0.3167165966005996  0.9113184773887042  1.0000
  S   S5        1.0  0.465483910695184  0.10929428332019597  0.7172264228574932  1.0000
  S   S6        1.0  0.8243533032073174  0.9840953964157961  0.4283843533448817  1.0000
  S   S7        1.0  0.28090866620186716  0.31181247963104397  0.5088471877825214  1.0000
  S   S8        1.0  0.768727422633674  0.06986307515762746  0.21122593118343502  1.0000
data_image100
_chemical_formula_structural       H16S8
_chemical_formula_sum              "H16 S8"
_cell_length_a       8.83753075774048
_cell_length_b       8.83753075774048
_cell_length_c       8.83753075774048
_cell_angle_alpha    118.690318510586
_cell_angle_beta     118.69031851058598
_cell_angle_gamma    92.28380992055807

_space_group_name_H-M_alt    "P 1"
_space_group_IT_number       1

loop_
  _space_group_symop_operation_xyz
  'x, y, z'

loop_
  _atom_site_type_symbol
  _atom_site_label
  _atom_site_symmetry_multiplicity
  _atom_site_fract_x
  _atom_site_fract_y
  _atom_site_fract_z
  _atom_site_occupancy
  H   H1        1.0  0.2322767567820847  0.7414946043863893  0.5218857987783849  1.0000
  H   H2        1.0  0.9684000429115258  0.3433236989658326  0.3960302909836173  1.0000
  H   H3        1.0  0.6461993525736034  0.511037920601666  0.03555351938121021  1.0000
  H   H4        1.0  0.5915586855262518  0.5538329661358148  0.8605313086882234  1.0000
  H   H5        1.0  0.40880272863432765  0.42525658034719527  0.47471957647940144  1.0000
  H   H6        1.0  0.2501763440668583  0.6311796363443136  0.42099301144480705  1.0000
  H   H7        1.0  0.15049452660605311  0.47550629591569304  0.5947449333034456  1.0000
  H   H8        1.0  0.83596936459071  0.3551549499970861  0.3921563900075853  1.0000
  H   H9        1.0  0.2693959034513682  0.4912668978795409  0.5036057052202523  1.0000
  H   H10       1.0  0.751537595060654  0.699182691052556  0.9314309704932384  1.0000
  H   H11       1.0  0.583850977011025  0.607836945913732  0.036503905430436134  1.0000
  H   H12       1.0  0.15271581429988146  0.8553463649004698  0.6907104105339386  1.0000
  H   H13       1.0  0.6340587547747418  0.28355742199346423  0.7429180478211492  1.0000
  H   H14       1.0  0.3638593340292573  0.6433899253606796  0.40433019399642944  1.0000
  H   H15       1.0  0.9803730808198452  0.7870145384222269  0.07498078979551792  1.0000
  H   H16       1.0  0.24336449755355716  0.8329747638199478  0.15288750825857278  1.0000
  S   S1        1.0  0.6801559611521952  0.10547532833879814  0.7489420053025242  1.0000
  S   S2        1.0  0.020690402714535594  0.951625848072581  0.5086729602189735  1.0000
  S   S3        1.0  0.20415707497886615  0.3917412363807671  0.3052047139790375  1.0000
  S   S4        1.0  0.6210585814842489  0.2564346264116466  0.17150466595194302  1.0000
  S   S5        1.0  0.006442606099881232  0.23038649128284305  0.19741164427250624  1.0000
  S   S6        1.0  0.4463769531575963  0.37864822504343465  0.9980961828041472  1.0000
  S   S7        1.0  0.5714622820960358  0.4493462418904528  0.44784273036930244  1.0000
  S   S8        1.0  0.2862050954136066  0.23238128377124667  0.30664282315410674  1.0000
data_image101
_chemical_formula_structural       H16S8
_chemical_formula_sum              "H16 S8"
_cell_length_a       8.83753075774048
_cell_length_b       8.83753075774048
_cell_length_c       8.83753075774048
_cell_angle_alpha    118.690318510586
_cell_angle_beta     118.69031851058598
_cell_angle_gamma    92.28380992055807

_space_group_name_H-M_alt    "P 1"
_space_group_IT_number       1

loop_
  _space_group_symop_operation_xyz
  'x, y, z'

loop_
  _atom_site_type_symbol
  _atom_site_label
  _atom_site_symmetry_multiplicity
  _atom_site_fract_x
  _atom_site_fract_y
  _atom_site_fract_z
  _atom_site_occupancy
  H   H1        1.0  0.17797571467235684  0.2159504173323512  0.4867872982285917  1.0000
  H   H2        1.0  0.5326005505630746  0.5773554984480143  0.257736646104604  1.0000
  H   H3        1.0  0.9580008492339402  0.18781142309308052  0.9958059012424201  1.0000
  H   H4        1.0  0.3646030311938375  0.7004816518165171  0.0009008129127323627  1.0000
  H   H5        1.0  0.3257563563529402  0.5326513027539477  0.26557825240888633  1.0000
  H   H6        1.0  0.6747922375798225  0.10946549475193024  0.23286154121160507  1.0000
  H   H7        1.0  0.8333176348824054  0.5129584360984154  0.6156955102924258  1.0000
  H   H8        1.0  0.5750271950382739  0.04106331063667312  0.10818002885207534  1.0000
  H   H9        1.0  0.1279632969526574  0.29082850145641714  0.41675648046657443  1.0000
  H   H10       1.0  0.4748310137401859  0.6649198716040701  0.600490830373019  1.0000
  H   H11       1.0  0.15474360063672066  0.1873912801966071  0.8550728033296764  1.0000
  H   H12       1.0  0.21086525917053223  0.403265698812902  0.5248651466681622  1.0000
  H   H13       1.0  0.8516973356017843  0.7640124298632145  0.36290694784838706  1.0000
  H   H14       1.0  0.02400050312280655  0.23950417153537273  0.35348517820239067  1.0000
  H   H15       1.0  0.9301878102123737  0.6354078315198421  0.40781326219439507  1.0000
  H   H16       1.0  0.07281437749043107  0.8341796544846147  0.5626107314928959  1.0000
  S   S1        1.0  0.42670455108600436  0.18840536184143275  0.9306527386506787  1.0000
  S   S2        1.0  0.632129906443879  0.7437874068855308  0.31147717067506164  1.0000
  S   S3        1.0  0.30096051112923305  0.6672974819666706  0.4469506634341087  1.0000
  S   S4        1.0  0.8368981428502593  0.9265319776022807  0.43279243167489767  1.0000
  S   S5        1.0  0.209936267696321  0.643024266581051  0.7672400751616806  1.0000
  S   S6        1.0  0.5685253042029217  0.8708940711221658  0.9027958500373643  1.0000
  S   S7        1.0  0.6326273251324892  0.15134874253999442  0.5328870004886994  1.0000
  S   S8        1.0  0.47531417150457855  0.22865241090767086  0.5163954091258347  1.0000
data_image102
_chemical_formula_structural       H16S8
_chemical_formula_sum              "H16 S8"
_cell_length_a       8.83753075774048
_cell_length_b       8.83753075774048
_cell_length_c       8.83753075774048
_cell_angle_alpha    118.690318510586
_cell_angle_beta     118.69031851058598
_cell_angle_gamma    92.28380992055807

_space_group_name_H-M_alt    "P 1"
_space_group_IT_number       1

loop_
  _space_group_symop_operation_xyz
  'x, y, z'

loop_
  _atom_site_type_symbol
  _atom_site_label
  _atom_site_symmetry_multiplicity
  _atom_site_fract_x
  _atom_site_fract_y
  _atom_site_fract_z
  _atom_site_occupancy
  H   H1        1.0  0.10454630083404481  0.6424727123230696  0.637099475832656  1.0000
  H   H2        1.0  0.9375782381393947  0.8532636309973896  0.9880285190884024  1.0000
  H   H3        1.0  0.2370629678480327  0.6034748228266835  0.402788239531219  1.0000
  H   H4        1.0  0.6992361359298229  0.17151580844074488  0.6457192328525707  1.0000
  H   H5        1.0  0.9219196105841547  0.3641428562114015  0.8268724601366557  1.0000
  H   H6        1.0  0.6127025820314884  0.3840007223188877  0.1664523147046566  1.0000
  H   H7        1.0  0.019734412897378206  0.8222707395907491  0.38916777819395065  1.0000
  H   H8        1.0  0.4443366465275176  0.9004083664622158  0.711149433394894  1.0000
  H   H9        1.0  0.33795093453954905  0.6179213770665228  0.14903149753808975  1.0000
  H   H10       1.0  0.29990654304856434  0.7773513179272413  0.9187028013402596  1.0000
  H   H11       1.0  0.2526167556643486  0.47390414867550135  0.6218562042340636  1.0000
  H   H12       1.0  0.36265466129407287  0.3268494354560971  0.05349346232833341  1.0000
  H   H13       1.0  0.16939750185701996  0.002909216331318021  0.5828276565298438  1.0000
  H   H14       1.0  0.6972199054434896  0.29239208437502384  0.37895267456769943  1.0000
  H   H15       1.0  0.3736254498362541  0.6917539406567812  0.7914729490876198  1.0000
  H   H16       1.0  0.1854243786074221  0.1485349542926997  0.6585923069796991  1.0000
  S   S1        1.0  0.5167751589760883  0.9612051336443983  0.29817444732179865  1.0000
  S   S2        1.0  0.9749856538837776  0.20579726138385013  0.16758796072099358  1.0000
  S   S3        1.0  0.2163926438370254  0.32950237108161673  0.3537580987904221  1.0000
  S   S4        1.0  0.026076012465637177  0.7227900717407465  0.7662129795935471  1.0000
  S   S5        1.0  0.20021135214483365  0.8330458682030439  0.3471935926936567  1.0000
  S   S6        1.0  0.27069851814303547  0.727256118610967  0.10475183637754526  1.0000
  S   S7        1.0  0.569164852029644  0.7826337220612913  0.9240508562361356  1.0000
  S   S8        1.0  0.012221044664329384  0.026333669084124267  0.5477337782504037  1.0000
data_image103
_chemical_formula_structural       H16S8
_chemical_formula_sum              "H16 S8"
_cell_length_a       8.83753075774048
_cell_length_b       8.83753075774048
_cell_length_c       8.83753075774048
_cell_angle_alpha    118.690318510586
_cell_angle_beta     118.69031851058598
_cell_angle_gamma    92.28380992055807

_space_group_name_H-M_alt    "P 1"
_space_group_IT_number       1

loop_
  _space_group_symop_operation_xyz
  'x, y, z'

loop_
  _atom_site_type_symbol
  _atom_site_label
  _atom_site_symmetry_multiplicity
  _atom_site_fract_x
  _atom_site_fract_y
  _atom_site_fract_z
  _atom_site_occupancy
  H   H1        1.0  0.09353726357221603  0.9821268259547651  0.6948685261886567  1.0000
  H   H2        1.0  0.08413834893144667  0.14718951447866857  0.04893492581322789  1.0000
  H   H3        1.0  0.5617067776620388  0.8056233692914248  0.8543441845686175  1.0000
  H   H4        1.0  0.12737419898621738  0.8719920215662569  0.07896098762284964  1.0000
  H   H5        1.0  0.4823703723959625  0.6136961153242737  0.7191046687075868  1.0000
  H   H6        1.0  0.9704161528497934  0.2450390886515379  0.6367334760725498  1.0000
  H   H7        1.0  0.2036151522770524  0.6106614547315985  0.5257310844026506  1.0000
  H   H8        1.0  0.12475179857574403  0.7197405745864671  0.357986890245229  1.0000
  H   H9        1.0  0.263734751730226  0.08079868333879858  0.6823411909863353  1.0000
  H   H10       1.0  0.1526386010227725  0.2284864359535277  0.8583764425711706  1.0000
  H   H11       1.0  0.24806206580251455  0.7554304571822286  0.7025382909923792  1.0000
  H   H12       1.0  0.11304966732859612  0.8176113441586494  0.05126836532144807  1.0000
  H   H13       1.0  0.8059684184845537  0.783755635144189  0.1660553781548515  1.0000
  H   H14       1.0  0.8883070629090071  0.4165774714201689  0.3785209059715271  1.0000
  H   H15       1.0  0.8452703841030598  0.270520381629467  0.3441614545881748  1.0000
  H   H16       1.0  0.8538062674924731  0.46954878396354616  0.7883609128766693  1.0000
  S   S1        1.0  0.6897387619828805  0.8978084807749838  0.9649325849604793  1.0000
  S   S2        1.0  0.12036115280352533  0.9482938121072948  0.4424372751964256  1.0000
  S   S3        1.0  0.13857316185021773  0.45909582474268973  0.5097551893850323  1.0000
  S   S4        1.0  0.13049089827109128  0.20554169861134142  0.6542035878228489  1.0000
  S   S5        1.0  0.787590529769659  0.2655138720292598  0.16972775594331324  1.0000
  S   S6        1.0  0.8644760473398492  0.27658715727739036  0.8403805915586418  1.0000
  S   S7        1.0  0.5261121509829536  0.10748806269839406  0.9243279726797482  1.0000
  S   S8        1.0  0.09010060821310617  0.3560542091727257  0.3798350659199059  1.0000
data_image104
_chemical_formula_structural       H16S8
_chemical_formula_sum              "H16 S8"
_cell_length_a       8.83753075774048
_cell_length_b       8.83753075774048
_cell_length_c       8.83753075774048
_cell_angle_alpha    118.690318510586
_cell_angle_beta     118.69031851058598
_cell_angle_gamma    92.28380992055807

_space_group_name_H-M_alt    "P 1"
_space_group_IT_number       1

loop_
  _space_group_symop_operation_xyz
  'x, y, z'

loop_
  _atom_site_type_symbol
  _atom_site_label
  _atom_site_symmetry_multiplicity
  _atom_site_fract_x
  _atom_site_fract_y
  _atom_site_fract_z
  _atom_site_occupancy
  H   H1        1.0  0.08950670738704503  0.4802385619841516  0.9100233013741672  1.0000
  H   H2        1.0  0.08156269497703761  0.34474127902649343  0.8168071885593235  1.0000
  H   H3        1.0  0.914001164957881  0.03960590250790119  0.6313711000693729  1.0000
  H   H4        1.0  0.1663810545578599  0.8739169200416654  0.6123545689042658  1.0000
  H   H5        1.0  0.036901244428008795  0.08505901065655053  0.18040696519892663  1.0000
  H   H6        1.0  0.769078454002738  0.5990133658051491  0.7002407312393188  1.0000
  H   H7        1.0  0.5408551127184182  0.004981413949280977  0.05529240285977721  1.0000
  H   H8        1.0  0.386514482088387  0.6534239287138917  0.7104632483096793  1.0000
  H   H9        1.0  0.41973784018773586  0.7191870185779408  0.7600631616078317  1.0000
  H   H10       1.0  0.39095498074311763  0.19754084153100848  0.5050630362238735  1.0000
  H   H11       1.0  0.3853685185313225  0.5301844663918018  0.8008700958453119  1.0000
  H   H12       1.0  0.711577920243144  0.12625155318528414  0.18253039120463654  1.0000
  H   H13       1.0  0.46887669898569584  0.23381649516522884  0.6187337029259652  1.0000
  H   H14       1.0  0.5745863933116198  0.7547910250723362  0.8769035488367081  1.0000
  H   H15       1.0  0.25291162356734276  0.6748927254229784  0.05436789616942406  1.0000
  H   H16       1.0  0.9934486851561815  0.3117751602549106  0.13396575722435955  1.0000
  S   S1        1.0  0.8178581084939651  0.7337399731040932  0.19636106575489976  1.0000
  S   S2        1.0  0.3547932265792042  0.8011125833727419  0.3863265902036801  1.0000
  S   S3        1.0  0.32635010129160946  0.3147967721452005  0.3330382768763229  1.0000
  S   S4        1.0  0.3854949904780369  0.030901496997103095  0.6006252716179006  1.0000
  S   S5        1.0  0.26825985859613866  0.09864420210942626  0.9800357706844807  1.0000
  S   S6        1.0  0.20408271491760388  0.4832319864653982  0.8261551798641449  1.0000
  S   S7        1.0  0.10680086049251258  0.8443920181598514  0.6575279879034497  1.0000
  S   S8        1.0  0.3439962268821546  0.9403270283946767  0.46237265889067203  1.0000
data_image105
_chemical_formula_structural       H16S8
_chemical_formula_sum              "H16 S8"
_cell_length_a       8.83753075774048
_cell_length_b       8.83753075774048
_cell_length_c       8.83753075774048
_cell_angle_alpha    118.690318510586
_cell_angle_beta     118.69031851058598
_cell_angle_gamma    92.28380992055807

_space_group_name_H-M_alt    "P 1"
_space_group_IT_number       1

loop_
  _space_group_symop_operation_xyz
  'x, y, z'

loop_
  _atom_site_type_symbol
  _atom_site_label
  _atom_site_symmetry_multiplicity
  _atom_site_fract_x
  _atom_site_fract_y
  _atom_site_fract_z
  _atom_site_occupancy
  H   H1        1.0  0.09164834907278419  0.5185672640800476  0.12063973373733461  1.0000
  H   H2        1.0  0.9724396826932207  0.5973178255371749  0.44832751248031855  1.0000
  H   H3        1.0  0.41620235005393624  0.6256098607555032  0.33471719885710627  1.0000
  H   H4        1.0  0.09632007614709437  0.8060800300445408  0.32491956709418446  1.0000
  H   H5        1.0  0.39974241075105965  0.6055720201693475  0.6050625651841983  1.0000
  H   H6        1.0  0.6925806552171707  0.8371251840144396  0.04083633050322533  1.0000
  H   H7        1.0  0.7377944360487163  0.07682879292406142  0.09556838753633201  1.0000
  H   H8        1.0  0.2095818710513413  0.807954034069553  0.20275763445533812  1.0000
  H   H9        1.0  0.31865416362416  0.2114284235285595  0.11605016468092799  1.0000
  H   H10       1.0  0.33549830625997856  0.6576913767494261  0.043440997833386064  1.0000
  H   H11       1.0  0.17372837103903294  0.49722195975482464  0.453763828612864  1.0000
  H   H12       1.0  0.26919038593769073  0.6072764517739415  0.35929121816297993  1.0000
  H   H13       1.0  0.9829003295162693  0.45529983774758875  0.26543970918282866  1.0000
  H   H14       1.0  0.2887761555612087  0.8976904805749655  0.47382256016135216  1.0000
  H   H15       1.0  0.4035350810736418  0.008104072883725166  0.2798499967902899  1.0000
  H   H16       1.0  0.4159598504193127  0.2250213833176531  0.9641235261951806  1.0000
  S   S1        1.0  0.3088478155550547  0.9594234641990624  0.4722981527738739  1.0000
  S   S2        1.0  0.23291798098944128  0.10276917787268758  0.6519654738949612  1.0000
  S   S3        1.0  0.9742989181904704  0.5355476617696695  0.7519891889533028  1.0000
  S   S4        1.0  0.9696365476993378  0.9122295309789479  0.806091947160894  1.0000
  S   S5        1.0  0.013937519455794245  0.09745248151011765  0.745129113085568  1.0000
  S   S6        1.0  0.6128999302745797  0.4115636953501962  0.06028791592689231  1.0000
  S   S7        1.0  0.9491603634087369  0.16862517804838717  0.32124792609829456  1.0000
  S   S8        1.0  0.5498422942691832  0.8512228021863848  0.3257727314485237  1.0000
data_image106
_chemical_formula_structural       H16S8
_chemical_formula_sum              "H16 S8"
_cell_length_a       8.83753075774048
_cell_length_b       8.83753075774048
_cell_length_c       8.83753075774048
_cell_angle_alpha    118.690318510586
_cell_angle_beta     118.69031851058598
_cell_angle_gamma    92.28380992055807

_space_group_name_H-M_alt    "P 1"
_space_group_IT_number       1

loop_
  _space_group_symop_operation_xyz
  'x, y, z'

loop_
  _atom_site_type_symbol
  _atom_site_label
  _atom_site_symmetry_multiplicity
  _atom_site_fract_x
  _atom_site_fract_y
  _atom_site_fract_z
  _atom_site_occupancy
  H   H1        1.0  0.34960130671970546  0.49100424628704786  0.10035049449652433  1.0000
  H   H2        1.0  0.7599721801816486  0.41692268289625645  0.04715307289734483  1.0000
  H   H3        1.0  0.5884283827617764  0.43473310954868793  0.2781502342550084  1.0000
  H   H4        1.0  0.47772366739809513  0.5291833293158561  0.1944737791782245  1.0000
  H   H5        1.0  0.7429995142156258  0.24701574817299843  0.18937945511424914  1.0000
  H   H6        1.0  0.48345170356333256  0.8741106577217579  0.8699731528759003  1.0000
  H   H7        1.0  0.13892661780118942  0.07056121056666598  0.22984959580935538  1.0000
  H   H8        1.0  0.10312061430886388  0.013046815525740385  0.097686528111808  1.0000
  H   H9        1.0  0.8963451711460948  0.7372087524272501  0.6029941635206342  1.0000
  H   H10       1.0  0.8270088076824322  0.015659449622035027  0.3895802691113204  1.0000
  H   H11       1.0  0.22789556067436934  0.5841441433876753  0.826349314302206  1.0000
  H   H12       1.0  0.8071854277513921  0.1805104585364461  0.7503457414568402  1.0000
  H   H13       1.0  0.7105950413970277  0.632775598205626  0.8880357035668567  1.0000
  H   H14       1.0  0.29847714211791754  0.38736557960510254  0.575299758464098  1.0000
  H   H15       1.0  0.11138482391834259  0.6544904913753271  0.30087574385106564  1.0000
  H   H16       1.0  0.5206747706979513  0.6390275122830644  0.5811441926052794  1.0000
  S   S1        1.0  0.3481118607451208  0.4434144955012016  0.727120385854505  1.0000
  S   S2        1.0  0.24715756345540285  0.3043701552087441  0.32328849600162357  1.0000
  S   S3        1.0  0.29448633776337374  0.7290408316184767  0.9061318423773628  1.0000
  S   S4        1.0  0.7867622567282524  0.6179392562480643  0.09136601065983996  1.0000
  S   S5        1.0  0.5147492905380204  0.5259171857032925  0.7968016553204507  1.0000
  S   S6        1.0  0.7093897403101437  0.38633071281947196  0.9341895373217994  1.0000
  S   S7        1.0  0.7718483780045062  0.1613520362880081  0.4329460868029855  1.0000
  S   S8        1.0  0.2831049415326561  0.7385584047297016  0.5698943665483966  1.0000
data_image107
_chemical_formula_structural       H16S8
_chemical_formula_sum              "H16 S8"
_cell_length_a       8.83753075774048
_cell_length_b       8.83753075774048
_cell_length_c       8.83753075774048
_cell_angle_alpha    118.690318510586
_cell_angle_beta     118.69031851058598
_cell_angle_gamma    92.28380992055807

_space_group_name_H-M_alt    "P 1"
_space_group_IT_number       1

loop_
  _space_group_symop_operation_xyz
  'x, y, z'

loop_
  _atom_site_type_symbol
  _atom_site_label
  _atom_site_symmetry_multiplicity
  _atom_site_fract_x
  _atom_site_fract_y
  _atom_site_fract_z
  _atom_site_occupancy
  H   H1        1.0  0.9902525525540113  0.7674773149192333  0.6045961799100041  1.0000
  H   H2        1.0  0.0025322948931716383  0.38028405606746674  0.07650651270523667  1.0000
  H   H3        1.0  0.3102108449675143  0.27457475662231445  0.6891057473840192  1.0000
  H   H4        1.0  0.23458836460486054  0.5412336781155318  0.4443434778659139  1.0000
  H   H5        1.0  0.5291254461044446  0.9035006421618164  0.36690335808089003  1.0000
  H   H6        1.0  0.6237633638083935  0.31969092786312103  0.3647734634578228  1.0000
  H   H7        1.0  0.6390914688818157  0.6457820392097346  0.5773616977967322  1.0000
  H   H8        1.0  0.09491550084203482  0.48817161963961553  0.5511287884437479  1.0000
  H   H9        1.0  0.8949716412462294  0.33378306252416223  0.6637354553677142  1.0000
  H   H10       1.0  0.1887876624823548  0.853557541500777  0.6609442939516157  1.0000
  H   H11       1.0  0.17269509844481945  0.19013943523168564  0.5601010108366609  1.0000
  H   H12       1.0  0.6977626737207174  0.9845055937767029  0.3281496897689067  1.0000
  H   H13       1.0  0.7170891050482169  0.6893457158003002  0.3791288948850706  1.0000
  H   H14       1.0  0.004829937592148781  0.07670779526233673  0.9117948040366173  1.0000
  H   H15       1.0  0.7458624690771103  0.8277977369725704  0.8397821355611086  1.0000
  H   H16       1.0  0.27278612344525754  0.5644549503922462  0.8151293991832063  1.0000
  S   S1        1.0  0.34102940154843964  0.687617231043987  0.0751907424419187  1.0000
  S   S2        1.0  0.5794469934189692  0.26957250834675506  0.5412772931158543  1.0000
  S   S3        1.0  0.5702979355410207  0.8687448960845359  0.9051613183983136  1.0000
  S   S4        1.0  0.25457559002097696  0.3814275114564225  0.6290958783065435  1.0000
  S   S5        1.0  0.15692439331905916  0.23086671449709684  0.1727363159880042  1.0000
  S   S6        1.0  0.040747778315562755  0.17682161647826433  0.14443059176846873  1.0000
  S   S7        1.0  0.3531934355851263  0.5107977484585717  0.5785342277085874  1.0000
  S   S8        1.0  0.396686848893296  0.439911165041849  0.9289104660274461  1.0000
data_image108
_chemical_formula_structural       H16S8
_chemical_formula_sum              "H16 S8"
_cell_length_a       8.83753075774048
_cell_length_b       8.83753075774048
_cell_length_c       8.83753075774048
_cell_angle_alpha    118.690318510586
_cell_angle_beta     118.69031851058598
_cell_angle_gamma    92.28380992055807

_space_group_name_H-M_alt    "P 1"
_space_group_IT_number       1

loop_
  _space_group_symop_operation_xyz
  'x, y, z'

loop_
  _atom_site_type_symbol
  _atom_site_label
  _atom_site_symmetry_multiplicity
  _atom_site_fract_x
  _atom_site_fract_y
  _atom_site_fract_z
  _atom_site_occupancy
  H   H1        1.0  0.7719774493016303  0.2655495353974402  0.9200260054785758  1.0000
  H   H2        1.0  0.49324166326550767  0.6098684798926115  0.4169627397786826  1.0000
  H   H3        1.0  0.662295144982636  0.1848804745823145  0.6293855002732016  1.0000
  H   H4        1.0  0.7634030915796757  0.35371315479278564  0.1557317308615893  1.0000
  H   H5        1.0  0.34810400288552046  0.22895420785062015  0.6587090026005171  1.0000
  H   H6        1.0  0.19328971579670906  0.6701043639332056  0.6008836589753628  1.0000
  H   H7        1.0  0.09906287211924791  0.18627713702153414  0.5722873145714402  1.0000
  H   H8        1.0  0.09683126118034124  0.4956261080224067  0.9580000339192338  1.0000
  H   H9        1.0  0.23028390854597092  0.7472925825277343  0.2842200817540288  1.0000
  H   H10       1.0  0.7204258414567448  0.7410293137654662  0.21105421194806695  1.0000
  H   H11       1.0  0.39025161787867546  0.6759038548916578  0.49459872068837285  1.0000
  H   H12       1.0  0.0074572316370904446  0.7631788421422243  0.9202887007268146  1.0000
  H   H13       1.0  0.2885921996785328  0.5590556373354048  0.5624371883459389  1.0000
  H   H14       1.0  0.35873550083488226  0.3552780095487833  0.203058909624815  1.0000
  H   H15       1.0  0.4608112554997206  0.8919540010392666  0.3029721211642027  1.0000
  H   H16       1.0  0.8302900490816683  0.5934008609037846  0.30818072240799665  1.0000
  S   S1        1.0  0.6265180642949417  0.48903728084405884  0.5384725628537126  1.0000
  S   S2        1.0  0.6192717667436227  0.9355798188480549  0.5970203831093386  1.0000
  S   S3        1.0  0.6586420035746414  0.2512806733720936  0.4240096358989831  1.0000
  S   S4        1.0  0.136537806421984  0.11954327661078423  0.7800822951394366  1.0000
  S   S5        1.0  0.04156368906842545  0.43142751802224666  0.16913310228846967  1.0000
  S   S6        1.0  0.5851585004711524  0.18379311182070524  0.7672470106044784  1.0000
  S   S7        1.0  0.02683171327225864  0.31939632643479854  0.4322794041072484  1.0000
  S   S8        1.0  0.5193584102235036  0.10229853342752904  0.2495541679672897  1.0000
data_image109
_chemical_formula_structural       H16S8
_chemical_formula_sum              "H16 S8"
_cell_length_a       8.83753075774048
_cell_length_b       8.83753075774048
_cell_length_c       8.83753075774048
_cell_angle_alpha    118.690318510586
_cell_angle_beta     118.69031851058598
_cell_angle_gamma    92.28380992055807

_space_group_name_H-M_alt    "P 1"
_space_group_IT_number       1

loop_
  _space_group_symop_operation_xyz
  'x, y, z'

loop_
  _atom_site_type_symbol
  _atom_site_label
  _atom_site_symmetry_multiplicity
  _atom_site_fract_x
  _atom_site_fract_y
  _atom_site_fract_z
  _atom_site_occupancy
  H   H1        1.0  0.4231648335698992  0.7017444442026317  0.576241517206654  1.0000
  H   H2        1.0  0.32807198888622224  0.8093327316455543  0.9726317303720862  1.0000
  H   H3        1.0  0.9368931967765093  0.34198038280010223  0.6096143728937022  1.0000
  H   H4        1.0  0.08607262326404452  0.5168393142521381  0.6578839043531843  1.0000
  H   H5        1.0  0.6014683882240206  0.05163612135220319  0.0895042386255227  1.0000
  H   H6        1.0  0.8806980215013027  0.6094112265855074  0.5686993934214115  1.0000
  H   H7        1.0  0.11118775140494108  0.3929579221876338  0.7208511028438807  1.0000
  H   H8        1.0  0.1430478859692812  0.6776156089035794  0.8964759118389338  1.0000
  H   H9        1.0  0.11153056053444743  0.9243552439147606  0.9037294303998351  1.0000
  H   H10       1.0  0.7909115522634238  0.44052162021398544  0.3385846917517483  1.0000
  H   H11       1.0  0.883339187130332  0.9476744830608368  0.2481182310730219  1.0000
  H   H12       1.0  0.450035247951746  0.3131400244310498  0.18575640267226845  1.0000
  H   H13       1.0  0.8809020206099376  0.0501282699406147  0.15759879839606583  1.0000
  H   H14       1.0  0.8432895541191101  0.26088382862508297  0.9656113758683205  1.0000
  H   H15       1.0  0.8282605987042189  0.24190620332956314  0.008226389065384865  1.0000
  H   H16       1.0  0.33381444425322115  0.3630721215158701  0.8542344111483544  1.0000
  S   S1        1.0  0.9800645585055463  0.9516234162147157  0.41889289394021034  1.0000
  S   S2        1.0  0.9971073673805222  0.28847527119796723  0.791276887874119  1.0000
  S   S3        1.0  0.506276223284658  0.42847499204799533  0.335987749916967  1.0000
  S   S4        1.0  0.9211205161118414  0.2578523342963308  0.4123925402673194  1.0000
  S   S5        1.0  0.5120719573460519  0.6269665025174618  0.9961223916616291  1.0000
  S   S6        1.0  0.7113151683006436  0.38918279914651066  0.9250311584328301  1.0000
  S   S7        1.0  0.6873662451980636  0.1596739647211507  0.19943438886548392  1.0000
  S   S8        1.0  0.7546842430383549  0.1318944573868066  0.05511010205373168  1.0000
data_image110
_chemical_formula_structural       H16S8
_chemical_formula_sum              "H16 S8"
_cell_length_a       8.83753075774048
_cell_length_b       8.83753075774048
_cell_length_c       8.83753075774048
_cell_angle_alpha    118.690318510586
_cell_angle_beta     118.69031851058598
_cell_angle_gamma    92.28380992055807

_space_group_name_H-M_alt    "P 1"
_space_group_IT_number       1

loop_
  _space_group_symop_operation_xyz
  'x, y, z'

loop_
  _atom_site_type_symbol
  _atom_site_label
  _atom_site_symmetry_multiplicity
  _atom_site_fract_x
  _atom_site_fract_y
  _atom_site_fract_z
  _atom_site_occupancy
  H   H1        1.0  0.5235859889071435  0.1734201367944479  0.3183575051371008  1.0000
  H   H2        1.0  0.07820374961011112  0.3819763632491231  0.10095885046757758  1.0000
  H   H3        1.0  0.6322594624944031  0.23442642856389284  0.6255823313258588  1.0000
  H   H4        1.0  0.4002598598599434  0.2955635180696845  0.13608312785072485  1.0000
  H   H5        1.0  0.11371305317152292  0.22381571773439646  0.6648207916878164  1.0000
  H   H6        1.0  0.5512336883693933  0.15017861127853394  0.9430185817182064  1.0000
  H   H7        1.0  0.8249568082392216  0.4251649890211411  0.056363383773714304  1.0000
  H   H8        1.0  0.8165196287445724  0.7025372018251801  0.5971880772849545  1.0000
  H   H9        1.0  0.8567128356080502  0.4807470911182463  0.04690497787669301  1.0000
  H   H10       1.0  0.6149980664486066  0.9516560966148973  0.9982390316436067  1.0000
  H   H11       1.0  0.297516112215817  0.16534688789397478  0.7513187252916396  1.0000
  H   H12       1.0  0.12504429835826159  0.6783190462738276  0.5634580932673998  1.0000
  H   H13       1.0  0.8571609249338508  0.8363776705227792  0.017418472096323967  1.0000
  H   H14       1.0  0.30516515113413334  0.5127072595059872  0.24831612780690193  1.0000
  H   H15       1.0  0.5491402931511402  0.051130831241607666  0.904216542840004  1.0000
  H   H16       1.0  0.6059093398507684  0.24169567553326488  0.6928536624182016  1.0000
  S   S1        1.0  0.0009417203837074339  0.8173106674803421  0.5199256947671529  1.0000
  S   S2        1.0  0.6004754271125421  0.1864545675343834  0.8730105576105416  1.0000
  S   S3        1.0  0.17047152102168184  0.44105616852175444  0.6913902660598978  1.0000
  S   S4        1.0  0.08019725463236682  0.7614020012551919  0.3261901731020771  1.0000
  S   S5        1.0  0.31998436187859625  0.8509934545727447  0.22603259049355984  1.0000
  S   S6        1.0  0.7914518367033452  0.5075643425807357  0.36978429346345365  1.0000
  S   S7        1.0  0.5173690937226638  0.7010954867582768  0.5684765954210889  1.0000
  S   S8        1.0  0.23169357395818224  0.6105689669493586  0.795940142008476  1.0000
data_image111
_chemical_formula_structural       H16S8
_chemical_formula_sum              "H16 S8"
_cell_length_a       8.83753075774048
_cell_length_b       8.83753075774048
_cell_length_c       8.83753075774048
_cell_angle_alpha    118.690318510586
_cell_angle_beta     118.69031851058598
_cell_angle_gamma    92.28380992055807

_space_group_name_H-M_alt    "P 1"
_space_group_IT_number       1

loop_
  _space_group_symop_operation_xyz
  'x, y, z'

loop_
  _atom_site_type_symbol
  _atom_site_label
  _atom_site_symmetry_multiplicity
  _atom_site_fract_x
  _atom_site_fract_y
  _atom_site_fract_z
  _atom_site_occupancy
  H   H1        1.0  0.39200221188366413  0.326512215891853  0.1581633493769914  1.0000
  H   H2        1.0  0.4985883746703621  0.21680805832147598  0.9358962478581816  1.0000
  H   H3        1.0  0.4703497155569494  0.8003885680809617  0.14887387988710543  1.0000
  H   H4        1.0  0.7952361213974655  0.9001628123223782  0.25122788663065876  1.0000
  H   H5        1.0  0.434539754409343  0.5294679991202429  0.9521646806388162  1.0000
  H   H6        1.0  0.9339244663715363  0.7551461588591337  0.1497277282178402  1.0000
  H   H7        1.0  0.7836902402341366  0.2647735108912457  0.5428982470184565  1.0000
  H   H8        1.0  0.3759390756022185  0.13904066816030536  0.2972995681047905  1.0000
  H   H9        1.0  0.05731101054698229  0.5357887276913971  0.20043310662731528  1.0000
  H   H10       1.0  0.5243715264950879  0.2533415202051401  0.23008313949685544  1.0000
  H   H11       1.0  0.5040669851005077  0.707420727238059  0.6220679474063218  1.0000
  H   H12       1.0  0.3092803885228932  0.5608436362817883  0.02209691039752215  1.0000
  H   H13       1.0  0.9612512734020129  0.6262740038800985  0.3359295630361885  1.0000
  H   H14       1.0  0.6013789167627692  0.397134518250823  0.08689850568771362  1.0000
  H   H15       1.0  0.393613638356328  0.9410145841538906  0.6765047833323479  1.0000
  H   H16       1.0  0.7141754236072302  0.7814613820519298  0.3131462640594691  1.0000
  S   S1        1.0  0.7795172166661359  0.9409501656191424  0.22054018691414967  1.0000
  S   S2        1.0  0.5422193786362186  0.5560662129428238  0.5025964014930651  1.0000
  S   S3        1.0  0.3735055934812408  0.1801467055338435  0.7017816767038312  1.0000
  S   S4        1.0  0.7548934694787022  0.681945817777887  0.47195730966632254  1.0000
  S   S5        1.0  0.7489882913068868  0.11826292658224702  0.6450477871112525  1.0000
  S   S6        1.0  0.21463142579887062  0.5364732930902392  0.9525947851652745  1.0000
  S   S7        1.0  0.29288734472356737  0.3130236353026703  0.9623141321935691  1.0000
  S   S8        1.0  0.7450793198295287  0.19178258313331753  0.18338411615695804  1.0000
data_image112
_chemical_formula_structural       H16S8
_chemical_formula_sum              "H16 S8"
_cell_length_a       8.83753075774048
_cell_length_b       8.83753075774048
_cell_length_c       8.83753075774048
_cell_angle_alpha    118.690318510586
_cell_angle_beta     118.69031851058598
_cell_angle_gamma    92.28380992055807

_space_group_name_H-M_alt    "P 1"
_space_group_IT_number       1

loop_
  _space_group_symop_operation_xyz
  'x, y, z'

loop_
  _atom_site_type_symbol
  _atom_site_label
  _atom_site_symmetry_multiplicity
  _atom_site_fract_x
  _atom_site_fract_y
  _atom_site_fract_z
  _atom_site_occupancy
  H   H1        1.0  0.06324791768565774  0.6251877441536635  0.17776155262254179  1.0000
  H   H2        1.0  0.8949227435223293  0.33308527432382107  0.42707727500237525  1.0000
  H   H3        1.0  0.5333211747929454  0.955394440330565  0.7988519946520682  1.0000
  H   H4        1.0  0.122980329208076  0.6564957380760461  0.7209656253289722  1.0000
  H   H5        1.0  0.49482590705156326  0.8907889412948862  0.2696104552305769  1.0000
  H   H6        1.0  0.4034312143921852  0.8067453242838383  0.4325540214776993  1.0000
  H   H7        1.0  0.997322108130902  0.0023068281589075923  0.24351585796102881  1.0000
  H   H8        1.0  0.07969331671483815  0.48216443150886334  0.6518538151576649  1.0000
  H   H9        1.0  0.8224474303424358  0.7595458010910079  0.4852289464324713  1.0000
  H   H10       1.0  0.6988496546982788  0.8110944735817611  0.06499875942245126  1.0000
  H   H11       1.0  0.8422655574977398  0.11552505940198898  0.48405362758785486  1.0000
  H   H12       1.0  0.7427177294157445  0.07770818658173084  0.3624123544432223  1.0000
  H   H13       1.0  0.024769332841970026  0.16138811269775033  0.8265979094430804  1.0000
  H   H14       1.0  0.4411080162972212  0.831766864284873  0.9983233660459518  1.0000
  H   H15       1.0  0.7221122402697802  0.05646212585270405  0.6641364563256502  1.0000
  H   H16       1.0  0.26660000812262297  0.3412461467087269  0.5847832458093762  1.0000
  S   S1        1.0  0.6187937343202066  0.9630967198754661  0.7925798283249605  1.0000
  S   S2        1.0  0.36177013895940036  0.5615700326743536  0.05726172938011587  1.0000
  S   S3        1.0  0.9248511541663902  0.4608535972656682  0.451256707921857  1.0000
  S   S4        1.0  0.19004246414988302  0.6566297720419243  0.11595845795818605  1.0000
  S   S5        1.0  0.4355784843210131  0.4518966219620779  0.910312796710059  1.0000
  S   S6        1.0  0.5236820724676363  0.4090467954520136  0.2896678407851141  1.0000
  S   S7        1.0  0.9787834041053429  0.30742671189364046  0.1626729118579533  1.0000
  S   S8        1.0  0.654753968519799  0.6405458857771009  0.14250787650234997  1.0000
data_image113
_chemical_formula_structural       H16S8
_chemical_formula_sum              "H16 S8"
_cell_length_a       8.83753075774048
_cell_length_b       8.83753075774048
_cell_length_c       8.83753075774048
_cell_angle_alpha    118.690318510586
_cell_angle_beta     118.69031851058598
_cell_angle_gamma    92.28380992055807

_space_group_name_H-M_alt    "P 1"
_space_group_IT_number       1

loop_
  _space_group_symop_operation_xyz
  'x, y, z'

loop_
  _atom_site_type_symbol
  _atom_site_label
  _atom_site_symmetry_multiplicity
  _atom_site_fract_x
  _atom_site_fract_y
  _atom_site_fract_z
  _atom_site_occupancy
  H   H1        1.0  0.39149838080629706  0.03805155563168228  0.8683251640759408  1.0000
  H   H2        1.0  0.9046381724474486  0.1871983278542757  0.6522895358502865  1.0000
  H   H3        1.0  0.386505248490721  0.48573350720107555  0.6120551346393768  1.0000
  H   H4        1.0  0.8439279785379767  0.4013592260889709  0.4745718008289259  1.0000
  H   H5        1.0  0.7493486126186326  0.48814695607870817  0.5209333860257175  1.0000
  H   H6        1.0  0.24581659212708473  0.33779301308095455  0.9561230018734932  1.0000
  H   H7        1.0  0.49734219908714294  0.7017585198627785  0.2085937592200935  1.0000
  H   H8        1.0  0.5307706787716597  0.010356253042118624  0.0901287074375432  1.0000
  H   H9        1.0  0.6840856075286865  0.6925821073818952  0.8117899312637746  1.0000
  H   H10       1.0  0.23012274492066354  0.2879494265653193  0.06693280942272395  1.0000
  H   H11       1.0  0.3538936348631978  0.8282836209982634  0.5085038309916854  1.0000
  H   H12       1.0  0.9740430633537471  0.11306467559188604  0.21692925574461697  1.0000
  H   H13       1.0  0.9377593114040792  0.05490974755957723  0.858200452697929  1.0000
  H   H14       1.0  0.3831978589296341  0.13156439550220966  0.38808930292725563  1.0000
  H   H15       1.0  0.935203555971384  0.03491902910172939  0.053006166592240334  1.0000
  H   H16       1.0  0.3943959845928475  0.35128841176629066  0.3885734917130321  1.0000
  S   S1        1.0  0.9691576053155586  0.4140365945058875  0.18260101912892424  1.0000
  S   S2        1.0  0.14107475138735026  0.39382401964394376  0.32462851982563734  1.0000
  S   S3        1.0  0.38086662186833564  0.41591175965731964  0.5132952042331453  1.0000
  S   S4        1.0  0.9970544790267013  0.9747050722362474  0.6224027861026116  1.0000
  S   S5        1.0  0.3430564374430105  0.49650512635707855  0.9371723984368145  1.0000
  S   S6        1.0  0.1709417337551713  0.8400035080267116  0.32906997499230783  1.0000
  S   S7        1.0  0.20945815613958985  0.7375224811257794  0.6995564482058398  1.0000
  S   S8        1.0  0.8953008897733525  0.32194483175408095  0.41701222816482186  1.0000
data_image114
_chemical_formula_structural       H16S8
_chemical_formula_sum              "H16 S8"
_cell_length_a       8.83753075774048
_cell_length_b       8.83753075774048
_cell_length_c       8.83753075774048
_cell_angle_alpha    118.690318510586
_cell_angle_beta     118.69031851058598
_cell_angle_gamma    92.28380992055807

_space_group_name_H-M_alt    "P 1"
_space_group_IT_number       1

loop_
  _space_group_symop_operation_xyz
  'x, y, z'

loop_
  _atom_site_type_symbol
  _atom_site_label
  _atom_site_symmetry_multiplicity
  _atom_site_fract_x
  _atom_site_fract_y
  _atom_site_fract_z
  _atom_site_occupancy
  H   H1        1.0  0.7187918284907937  0.7085268027149141  0.4939887367654592  1.0000
  H   H2        1.0  0.0755236498080194  0.6975015122443438  0.14001115877181292  1.0000
  H   H3        1.0  0.5380333457142115  0.9139794399961829  0.9936388070636895  1.0000
  H   H4        1.0  0.07471066107973456  0.8757717746775597  0.5348070611362346  1.0000
  H   H5        1.0  0.18504992360249162  0.13831396808382124  0.7809815721702762  1.0000
  H   H6        1.0  0.5027431100606918  0.8358680922538042  0.9637152403593063  1.0000
  H   H7        1.0  0.6958871204406023  0.07152150639740285  0.8109776093624532  1.0000
  H   H8        1.0  0.2590292296372354  0.013340742618311197  0.6420407626137603  1.0000
  H   H9        1.0  0.710679656593129  0.352964993333444  0.2182116056792438  1.0000
  H   H10       1.0  0.6309543440002017  0.9297687658108771  0.7246068600798026  1.0000
  H   H11       1.0  0.3499809727072716  0.8926587225869298  0.345174606423825  1.0000
  H   H12       1.0  0.9975685835815966  0.25857739616185427  0.15334375674137846  1.0000
  H   H13       1.0  0.47655841056257486  0.7370746957603842  0.5043571274727583  1.0000
  H   H14       1.0  0.5062237810343504  0.593881169334054  0.5747930109500885  1.0000
  H   H15       1.0  0.9624988604336977  0.34936562553048134  0.5056668072938919  1.0000
  H   H16       1.0  0.3070523637579754  0.6634407173842192  0.001682113390415907  1.0000
  S   S1        1.0  0.7281307182856835  0.8531679974403232  0.5012289130536374  1.0000
  S   S2        1.0  0.7212662510573864  0.6324980991776101  0.7469181296182796  1.0000
  S   S3        1.0  0.24660147994291037  0.23626071162289008  0.43276122043607756  1.0000
  S   S4        1.0  0.8169475171889644  0.94637949205935  0.47774718873552047  1.0000
  S   S5        1.0  0.8854961027973332  0.6679991157725453  0.11539518972858787  1.0000
  S   S6        1.0  0.2783622698043473  0.6473476193496026  0.5785098308842862  1.0000
  S   S7        1.0  0.18306283163838089  0.16871301864739507  0.8524484109366313  1.0000
  S   S8        1.0  0.09796137713419739  0.33387416251935065  0.442453641211614  1.0000
data_image115
_chemical_formula_structural       H16S8
_chemical_formula_sum              "H16 S8"
_cell_length_a       8.83753075774048
_cell_length_b       8.83753075774048
_cell_length_c       8.83753075774048
_cell_angle_alpha    118.690318510586
_cell_angle_beta     118.69031851058598
_cell_angle_gamma    92.28380992055807

_space_group_name_H-M_alt    "P 1"
_space_group_IT_number       1

loop_
  _space_group_symop_operation_xyz
  'x, y, z'

loop_
  _atom_site_type_symbol
  _atom_site_label
  _atom_site_symmetry_multiplicity
  _atom_site_fract_x
  _atom_site_fract_y
  _atom_site_fract_z
  _atom_site_occupancy
  H   H1        1.0  0.09438796970061958  0.6047419698443264  0.5139294867403805  1.0000
  H   H2        1.0  0.3993889866396785  0.41544497571885586  0.5721603110432625  1.0000
  H   H3        1.0  0.11717503890395164  0.0001861918717622757  0.5803039542515762  1.0000
  H   H4        1.0  0.5537564023397863  0.7206403603777289  0.8123069262364879  1.0000
  H   H5        1.0  0.8639855062356219  0.03243547002784908  0.490604808088392  1.0000
  H   H6        1.0  0.46168927662074566  0.7468882985413074  0.21439643576741219  1.0000
  H   H7        1.0  0.6300273097585887  0.5319776333781192  0.4433563598431647  1.0000
  H   H8        1.0  0.01622198987752199  0.18454214005032554  0.47836208197986707  1.0000
  H   H9        1.0  0.9183735607657582  0.06617348047439009  0.759116099216044  1.0000
  H   H10       1.0  0.9693677924806252  0.18682094407267869  0.3360677362070419  1.0000
  H   H11       1.0  0.8048418676480651  0.04965092148631811  0.8005122514441609  1.0000
  H   H12       1.0  0.09504540963098407  0.031273145228624344  0.39576742541976273  1.0000
  H   H13       1.0  0.9388540146173909  0.01356331235729158  0.8564446285017766  1.0000
  H   H14       1.0  0.10495067480951548  0.15794924274086952  0.103038240224123  1.0000
  H   H15       1.0  0.04178294725716114  0.6404088344424963  0.12825619615614414  1.0000
  H   H16       1.0  0.7259252819931135  0.03878366784192622  0.7958275442942977  1.0000
  S   S1        1.0  0.21056713889993262  0.4707186804735102  0.18825475516496226  1.0000
  S   S2        1.0  0.12065785739105195  0.20084822620265186  0.3816187708871439  1.0000
  S   S3        1.0  0.18135986989364028  0.6319204964092933  0.19440630709868856  1.0000
  S   S4        1.0  0.9896449504885823  0.7786347068613395  0.37960016858414747  1.0000
  S   S5        1.0  0.1845636925427243  0.6864923698594794  0.7536523921880871  1.0000
  S   S6        1.0  0.7480224630562589  0.9855667107040063  0.33060924970777705  1.0000
  S   S7        1.0  0.5424013399751857  0.7839402258396149  0.7321320096671116  1.0000
  S   S8        1.0  0.40077229557937244  0.9470273338956758  0.7838633209466934  1.0000
data_image116
_chemical_formula_structural       H16S8
_chemical_formula_sum              "H16 S8"
_cell_length_a       8.83753075774048
_cell_length_b       8.83753075774048
_cell_length_c       8.83753075774048
_cell_angle_alpha    118.690318510586
_cell_angle_beta     118.69031851058598
_cell_angle_gamma    92.28380992055807

_space_group_name_H-M_alt    "P 1"
_space_group_IT_number       1

loop_
  _space_group_symop_operation_xyz
  'x, y, z'

loop_
  _atom_site_type_symbol
  _atom_site_label
  _atom_site_symmetry_multiplicity
  _atom_site_fract_x
  _atom_site_fract_y
  _atom_site_fract_z
  _atom_site_occupancy
  H   H1        1.0  0.2415771847590804  0.11789008881896734  0.8548457934521139  1.0000
  H   H2        1.0  0.12932460010051727  0.7854859791696072  0.5883686244487762  1.0000
  H   H3        1.0  0.599609169177711  0.5327624129131436  0.7713146074675024  1.0000
  H   H4        1.0  0.7360147738363594  0.6301431024912745  0.9750770792597905  1.0000
  H   H5        1.0  0.5867075154092163  0.4248251741519198  0.43395048250386026  1.0000
  H   H6        1.0  0.7172579057514668  0.9773495551198721  0.6040635071694851  1.0000
  H   H7        1.0  0.6576253378298134  0.300235418297234  0.5044658156111836  1.0000
  H   H8        1.0  0.5794096768368036  0.05866072705248371  0.6241151450522011  1.0000
  H   H9        1.0  0.28677529585547745  0.9086375925689936  0.004942522384226322  1.0000
  H   H10       1.0  0.4677893938642228  0.20099852047860622  0.7099541547213448  1.0000
  H   H11       1.0  0.6954073822125793  0.43552874121814966  0.4459307608194649  1.0000
  H   H12       1.0  0.012739997822791338  0.3989468961954117  0.12992898689117283  1.0000
  H   H13       1.0  0.6264949105679989  0.017161668045446277  0.08324308600276709  1.0000
  H   H14       1.0  0.6936111329123378  0.2423849143087864  0.03420070931315422  1.0000
  H   H15       1.0  0.8014899976551533  0.20607000775635242  0.14153694547712803  1.0000
  H   H16       1.0  0.07480939233209938  0.16750323097221553  0.35194119857624173  1.0000
  S   S1        1.0  0.16014840634306893  0.11841404414735734  0.14632028905907646  1.0000
  S   S2        1.0  0.09316393884364516  0.4153060740791261  0.9115079602925107  1.0000
  S   S3        1.0  0.7388833169243298  0.8745239431736991  0.8092647468147334  1.0000
  S   S4        1.0  0.13091778577654622  0.7080177653115243  0.2017532988684252  1.0000
  S   S5        1.0  0.9487611869117245  0.5771859815577045  0.04675554484128952  1.0000
  S   S6        1.0  0.25841399107594043  0.8934562602080405  0.5793151021352969  1.0000
  S   S7        1.0  0.7513492030557245  0.46291567746084183  0.8172082053788472  1.0000
  S   S8        1.0  0.056983567046700045  0.27213811432011425  0.7909726077923551  1.0000
data_image117
_chemical_formula_structural       H16S8
_chemical_formula_sum              "H16 S8"
_cell_length_a       8.83753075774048
_cell_length_b       8.83753075774048
_cell_length_c       8.83753075774048
_cell_angle_alpha    118.690318510586
_cell_angle_beta     118.69031851058598
_cell_angle_gamma    92.28380992055807

_space_group_name_H-M_alt    "P 1"
_space_group_IT_number       1

loop_
  _space_group_symop_operation_xyz
  'x, y, z'

loop_
  _atom_site_type_symbol
  _atom_site_label
  _atom_site_symmetry_multiplicity
  _atom_site_fract_x
  _atom_site_fract_y
  _atom_site_fract_z
  _atom_site_occupancy
  H   H1        1.0  0.6114002582617104  0.9467401229776442  0.05606144783087075  1.0000
  H   H2        1.0  0.9354139529168606  0.38084622845053673  0.5222416520118713  1.0000
  H   H3        1.0  0.2109802677296102  0.5583630781620741  0.5276846680790186  1.0000
  H   H4        1.0  0.9189617233350873  0.0015662952791899443  0.6430016150115989  1.0000
  H   H5        1.0  0.8013550897594541  0.3209180135745555  0.04105697886552662  1.0000
  H   H6        1.0  0.1393177229911089  0.14683541655540466  0.9965797737240791  1.0000
  H   H7        1.0  0.7423725517001003  0.9006482301192591  0.5824311603792012  1.0000
  H   H8        1.0  0.18082331609912217  0.3734083358431235  0.7526711864047684  1.0000
  H   H9        1.0  0.7528130256105214  0.4166023904690519  0.5014899512752891  1.0000
  H   H10       1.0  0.04062675952445716  0.4710259744897485  0.4706668787403032  1.0000
  H   H11       1.0  0.6637621428817511  0.9909682627767324  0.38420435786247253  1.0000
  H   H12       1.0  0.8377445014193654  0.4194023897871375  0.8751670517958701  1.0000
  H   H13       1.0  0.09265273110941052  0.31080101686529815  0.5482267017359845  1.0000
  H   H14       1.0  0.12548447214066982  0.5866826176643372  0.7999427169561386  1.0000
  H   H15       1.0  0.8331114202737808  0.2321146596223116  0.47122262977063656  1.0000
  H   H16       1.0  0.16800609324127436  0.6316101513803005  0.9417606180068105  1.0000
  S   S1        1.0  0.36670627861167304  0.6067238223040476  0.3517918182478752  1.0000
  S   S2        1.0  0.4789336849935353  0.1720070238225162  0.2755414567072876  1.0000
  S   S3        1.0  0.571990689568338  0.3717242002603598  0.9034434168715961  1.0000
  S   S4        1.0  0.3918729754514061  0.42013054084964097  0.6866753001522738  1.0000
  S   S5        1.0  0.4511098127113655  0.028767121490091085  0.36718106432817876  1.0000
  S   S6        1.0  0.547945971833542  0.348527644877322  0.023478534625610337  1.0000
  S   S7        1.0  0.5291943843476474  0.5351062321569771  0.44144771801074967  1.0000
  S   S8        1.0  0.1470558262662962  0.09833733818959445  0.4821079197572544  1.0000
data_image118
_chemical_formula_structural       H16S8
_chemical_formula_sum              "H16 S8"
_cell_length_a       8.83753075774048
_cell_length_b       8.83753075774048
_cell_length_c       8.83753075774048
_cell_angle_alpha    118.690318510586
_cell_angle_beta     118.69031851058598
_cell_angle_gamma    92.28380992055807

_space_group_name_H-M_alt    "P 1"
_space_group_IT_number       1

loop_
  _space_group_symop_operation_xyz
  'x, y, z'

loop_
  _atom_site_type_symbol
  _atom_site_label
  _atom_site_symmetry_multiplicity
  _atom_site_fract_x
  _atom_site_fract_y
  _atom_site_fract_z
  _atom_site_occupancy
  H   H1        1.0  0.45542119489982724  0.11496973875910044  0.000985567457973957  1.0000
  H   H2        1.0  0.7993732467293739  0.7262358777225018  0.13756050541996956  1.0000
  H   H3        1.0  0.9254051158204675  0.4245535433292389  0.8331114104948938  1.0000
  H   H4        1.0  0.5002634616103023  0.8343611150048673  0.9540429937769659  1.0000
  H   H5        1.0  0.10566509189084172  0.46167603554204106  0.463844204263296  1.0000
  H   H6        1.0  0.48765721544623375  0.1711463313549757  0.18499791249632835  1.0000
  H   H7        1.0  0.9328869383316487  0.4205863919778494  0.6514964131638408  1.0000
  H   H8        1.0  0.9449361944571137  0.8308758785715327  0.9927951293066144  1.0000
  H   H9        1.0  0.05189832905307412  0.38097977626603097  0.824437091127038  1.0000
  H   H10       1.0  0.760128656111192  0.8090655622072518  0.10543641936965287  1.0000
  H   H11       1.0  0.26436686143279076  0.7062951931729913  0.9328629174269736  1.0000
  H   H12       1.0  0.7189594502560794  0.5283557763323188  0.4617362105054781  1.0000
  H   H13       1.0  0.7898424880113453  0.8497777092270553  0.4476200082572177  1.0000
  H   H14       1.0  0.15011665411293507  0.5539330299943686  0.45677972584962845  1.0000
  H   H15       1.0  0.5011424757540226  0.7773805055767298  0.8914274405688047  1.0000
  H   H16       1.0  0.3715783531079069  0.04453170206397772  0.9210549397394061  1.0000
  S   S1        1.0  0.3235845611488912  0.7249091044650413  0.31909293303033337  1.0000
  S   S2        1.0  0.11901790206320584  0.12771337572485209  0.7925861299736425  1.0000
  S   S3        1.0  0.06623718995251693  0.024075855792034417  0.9668174315593205  1.0000
  S   S4        1.0  0.1434331175405532  0.43394089804496616  0.452265755739063  1.0000
  S   S5        1.0  0.12721485906513408  0.8679230276029557  0.4425639072433114  1.0000
  S   S6        1.0  0.08963104244321585  0.2970086056739092  0.11261775785533246  1.0000
  S   S7        1.0  0.19103825616184622  0.46964335115626454  0.9239550738129765  1.0000
  S   S8        1.0  0.5183195730060106  0.7622623693896458  0.8823871787171811  1.0000
data_image119
_chemical_formula_structural       H16S8
_chemical_formula_sum              "H16 S8"
_cell_length_a       8.83753075774048
_cell_length_b       8.83753075774048
_cell_length_c       8.83753075774048
_cell_angle_alpha    118.690318510586
_cell_angle_beta     118.69031851058598
_cell_angle_gamma    92.28380992055807

_space_group_name_H-M_alt    "P 1"
_space_group_IT_number       1

loop_
  _space_group_symop_operation_xyz
  'x, y, z'

loop_
  _atom_site_type_symbol
  _atom_site_label
  _atom_site_symmetry_multiplicity
  _atom_site_fract_x
  _atom_site_fract_y
  _atom_site_fract_z
  _atom_site_occupancy
  H   H1        1.0  0.0582942427136004  0.9227699139155447  0.19385571940802038  1.0000
  H   H2        1.0  0.8550696820020676  0.9400943331420422  0.9916518088430166  1.0000
  H   H3        1.0  0.4533511735498905  0.2800585078075528  0.27598344860598445  1.0000
  H   H4        1.0  0.04921055934391916  0.5536499652080238  0.5868160875979811  1.0000
  H   H5        1.0  0.47852444602176547  0.6341811481397599  0.6409309045411646  1.0000
  H   H6        1.0  0.8172954842448235  0.10834251344203949  0.2357119806110859  1.0000
  H   H7        1.0  0.3973119524307549  0.3946483446561615  0.04800250148400664  1.0000
  H   H8        1.0  0.3639181505423039  0.6148270855192095  0.41808271495392546  1.0000
  H   H9        1.0  0.9106930489651859  0.3288584224646911  0.9946546219289303  1.0000
  H   H10       1.0  0.8112498031696305  0.5699715707451105  0.5905350256944075  1.0000
  H   H11       1.0  0.021326418034732342  0.6565767731517553  0.6161945168860257  1.0000
  H   H12       1.0  0.6055290754884481  0.5962125863879919  0.3807857255451381  1.0000
  H   H13       1.0  0.9781852255109698  0.9678069439250976  0.673875197651796  1.0000
  H   H14       1.0  0.23432013764977455  0.5139448381960392  0.6410007290542126  1.0000
  H   H15       1.0  0.5660395678132772  0.33416893146932125  0.7554903980344534  1.0000
  H   H16       1.0  0.40149679430760443  0.404205403290689  0.7184400311671197  1.0000
  S   S1        1.0  0.16759688759339042  0.8398526497767307  0.3917009554570541  1.0000
  S   S2        1.0  0.2579949840437621  0.9021716462448239  0.008018022577743977  1.0000
  S   S3        1.0  0.5523292978550671  0.3460347930667922  0.5890343579521868  1.0000
  S   S4        1.0  0.7570142018957995  0.8120848276885226  0.7685934371838812  1.0000
  S   S5        1.0  0.1328237424022518  0.2361146011389792  0.7523607364855707  1.0000
  S   S6        1.0  0.44865155417937785  0.6751858462812379  0.9623530306998873  1.0000
  S   S7        1.0  0.8952818416291848  0.6244518187595531  0.4005830211099237  1.0000
  S   S8        1.0  0.05253752855787752  0.06861003872472793  0.9375063707120717  1.0000
data_image120
_chemical_formula_structural       H16S8
_chemical_formula_sum              "H16 S8"
_cell_length_a       8.83753075774048
_cell_length_b       8.83753075774048
_cell_length_c       8.83753075774048
_cell_angle_alpha    118.690318510586
_cell_angle_beta     118.69031851058598
_cell_angle_gamma    92.28380992055807

_space_group_name_H-M_alt    "P 1"
_space_group_IT_number       1

loop_
  _space_group_symop_operation_xyz
  'x, y, z'

loop_
  _atom_site_type_symbol
  _atom_site_label
  _atom_site_symmetry_multiplicity
  _atom_site_fract_x
  _atom_site_fract_y
  _atom_site_fract_z
  _atom_site_occupancy
  H   H1        1.0  0.1444011777639389  0.050200782250612974  0.23975029168650508  1.0000
  H   H2        1.0  0.7176218777894974  0.9090621881186962  0.7679769732058048  1.0000
  H   H3        1.0  0.18481361353769898  0.8635389944538474  0.43196553038433194  1.0000
  H   H4        1.0  0.19240828859619796  0.5544784537050873  0.886534227814991  1.0000
  H   H5        1.0  0.8625949542038143  0.2818718410562724  0.4665720332413912  1.0000
  H   H6        1.0  0.15131292305886745  0.777725987136364  0.848102118819952  1.0000
  H   H7        1.0  0.20914114732295275  0.7970587273375713  0.16873448435217142  1.0000
  H   H8        1.0  0.02627130295149982  0.29727646632818505  0.5705016597930808  1.0000
  H   H9        1.0  0.23045945120975375  0.6176245789974928  0.0708913067355752  1.0000
  H   H10       1.0  0.6779021624242887  0.293404177762568  0.16767046501627192  1.0000
  H   H11       1.0  0.5737470202147961  0.7027507480233908  0.6704108822159469  1.0000
  H   H12       1.0  0.43897402472794056  0.6666925959289074  0.3088977860752493  1.0000
  H   H13       1.0  0.7899472573772073  0.6022502251435071  0.8729820678126998  1.0000
  H   H14       1.0  0.3156475508585572  0.8660481907427311  0.9149915240705013  1.0000
  H   H15       1.0  0.9828506782650948  0.9289024826139212  0.7414766140282154  1.0000
  H   H16       1.0  0.21845076943282038  0.7288820818066597  0.3226941325701773  1.0000
  S   S1        1.0  0.3785776422882918  0.4073518408113159  0.24367435683961958  1.0000
  S   S2        1.0  0.8700951045611873  0.6764945822069421  0.5981647369335406  1.0000
  S   S3        1.0  0.2531028276498546  0.09957568312529474  0.8746266870584805  1.0000
  S   S4        1.0  0.5631523664924316  0.20524893328547478  0.5864749198954087  1.0000
  S   S5        1.0  0.9364767847873736  0.9402280393987894  0.6085252668708563  1.0000
  S   S6        1.0  0.3873824120964855  0.7656606826931238  0.5688752177229617  1.0000
  S   S7        1.0  0.6591181945987046  0.9652473899768665  0.8336818881289219  1.0000
  S   S8        1.0  0.39151695717009716  0.6352266401518136  0.34243651176802814  1.0000
data_image121
_chemical_formula_structural       H16S8
_chemical_formula_sum              "H16 S8"
_cell_length_a       8.83753075774048
_cell_length_b       8.83753075774048
_cell_length_c       8.83753075774048
_cell_angle_alpha    118.690318510586
_cell_angle_beta     118.69031851058598
_cell_angle_gamma    92.28380992055807

_space_group_name_H-M_alt    "P 1"
_space_group_IT_number       1

loop_
  _space_group_symop_operation_xyz
  'x, y, z'

loop_
  _atom_site_type_symbol
  _atom_site_label
  _atom_site_symmetry_multiplicity
  _atom_site_fract_x
  _atom_site_fract_y
  _atom_site_fract_z
  _atom_site_occupancy
  H   H1        1.0  0.7777974412310869  0.19288914510980248  0.10292249685153365  1.0000
  H   H2        1.0  0.16355086863040924  0.3520779497921467  0.8222777303308249  1.0000
  H   H3        1.0  0.5358867160975933  0.6941774962469935  0.7924466878175735  1.0000
  H   H4        1.0  0.32144246087409556  0.729424168355763  0.7687868648208678  1.0000
  H   H5        1.0  0.7943596600089222  0.8831606633029878  0.5252548827556893  1.0000
  H   H6        1.0  0.7196709234267473  0.3438621386885643  0.5570499934256077  1.0000
  H   H7        1.0  0.28427582420408726  0.08273721984005533  0.2169643435627222  1.0000
  H   H8        1.0  0.7865040719043463  0.6694358040113002  0.029746673215413466  1.0000
  H   H9        1.0  0.9431425714865327  0.8107279326068237  0.8015699181705713  1.0000
  H   H10       1.0  0.16271888103801757  0.8635400072671473  0.6560123199014924  1.0000
  H   H11       1.0  0.36740238778293133  0.09162959456443787  0.5858904141932726  1.0000
  H   H12       1.0  0.9123476268723607  0.46325542870908976  0.24641424836590886  1.0000
  H   H13       1.0  0.17073366744443774  0.49844655441120267  0.8916838041332085  1.0000
  H   H14       1.0  0.28144445084035397  0.506031583994627  0.2536516673862934  1.0000
  H   H15       1.0  0.6722179055213928  0.4557486679404974  0.8226353768259287  1.0000
  H   H16       1.0  0.5497555165784433  0.01974659552797675  0.13170629274100065  1.0000
  S   S1        1.0  0.2876847326697316  0.07971220120089129  0.09240976994624361  1.0000
  S   S2        1.0  0.05135208903811872  0.2385303993942216  0.5395887095364742  1.0000
  S   S3        1.0  0.6846825759494095  0.31684599252184853  0.5283721493324265  1.0000
  S   S4        1.0  0.08811199013143778  0.7791757594095543  0.2052627522207331  1.0000
  S   S5        1.0  0.2675123802619055  0.6704256108496338  0.5851603783667088  1.0000
  S   S6        1.0  0.06108297442551702  0.009390109800733626  0.46269076070166193  1.0000
  S   S7        1.0  0.831302992766723  0.09504773083608598  0.7319158921018243  1.0000
  S   S8        1.0  0.48963249985536095  0.9245926144067198  0.16049410996492952  1.0000
data_image122
_chemical_formula_structural       H16S8
_chemical_formula_sum              "H16 S8"
_cell_length_a       8.83753075774048
_cell_length_b       8.83753075774048
_cell_length_c       8.83753075774048
_cell_angle_alpha    118.690318510586
_cell_angle_beta     118.69031851058598
_cell_angle_gamma    92.28380992055807

_space_group_name_H-M_alt    "P 1"
_space_group_IT_number       1

loop_
  _space_group_symop_operation_xyz
  'x, y, z'

loop_
  _atom_site_type_symbol
  _atom_site_label
  _atom_site_symmetry_multiplicity
  _atom_site_fract_x
  _atom_site_fract_y
  _atom_site_fract_z
  _atom_site_occupancy
  H   H1        1.0  0.14206911996006966  0.952826596563682  0.7989624189212918  1.0000
  H   H2        1.0  0.30674105510115623  0.9148188419640064  0.27686421014368534  1.0000
  H   H3        1.0  0.7911738608963788  0.15420744940638542  0.6738135921768844  1.0000
  H   H4        1.0  0.7548463663551956  0.39186090091243386  0.4470470862579532  1.0000
  H   H5        1.0  0.21835925709456205  0.7769826194271445  0.49363813211675733  1.0000
  H   H6        1.0  0.6274840515106916  0.36547775752842426  0.007480289787054062  1.0000
  H   H7        1.0  0.6439098035916686  0.009488392039202154  0.018594156485050917  1.0000
  H   H8        1.0  0.9498737906105816  0.34684457327239215  0.34087082522455603  1.0000
  H   H9        1.0  0.3034527814015746  0.16472393367439508  0.12794042099267244  1.0000
  H   H10       1.0  0.5471856792573817  0.7385592949576676  0.8900141248013824  1.0000
  H   H11       1.0  0.8139618020504713  0.16431929916143417  0.1475779782049358  1.0000
  H   H12       1.0  0.7739029820077121  0.11156122107058764  0.49372772173956037  1.0000
  H   H13       1.0  0.941075837938115  0.9092990518547595  0.3604718433925882  1.0000
  H   H14       1.0  0.08870920538902283  0.7977076899260283  0.3960881680250168  1.0000
  H   H15       1.0  0.03397919051349163  0.6002349629998207  0.652783727273345  1.0000
  H   H16       1.0  0.3889875935856253  0.8157279882580042  0.8882501614280045  1.0000
  S   S1        1.0  0.023480668111005798  0.7520409651333466  0.8510190798551776  1.0000
  S   S2        1.0  0.7538742840988562  0.1505234792130068  0.5210380733478814  1.0000
  S   S3        1.0  0.3436326420560363  0.11910564888967201  0.4211930490564555  1.0000
  S   S4        1.0  0.8128106337971985  0.6495976287405938  0.16823314360226505  1.0000
  S   S5        1.0  0.8595469313149806  0.25725700869224966  0.5763836221303791  1.0000
  S   S6        1.0  0.4944408613955602  0.3194202013546601  0.4832959155901335  1.0000
  S   S7        1.0  0.5613937622401863  0.20214221405331045  0.7471335633099443  1.0000
  S   S8        1.0  0.17521753718028776  0.21234694181475788  0.7818916864925995  1.0000
data_image123
_chemical_formula_structural       H16S8
_chemical_formula_sum              "H16 S8"
_cell_length_a       8.83753075774048
_cell_length_b       8.83753075774048
_cell_length_c       8.83753075774048
_cell_angle_alpha    118.690318510586
_cell_angle_beta     118.69031851058598
_cell_angle_gamma    92.28380992055807

_space_group_name_H-M_alt    "P 1"
_space_group_IT_number       1

loop_
  _space_group_symop_operation_xyz
  'x, y, z'

loop_
  _atom_site_type_symbol
  _atom_site_label
  _atom_site_symmetry_multiplicity
  _atom_site_fract_x
  _atom_site_fract_y
  _atom_site_fract_z
  _atom_site_occupancy
  H   H1        1.0  0.29503912874497473  0.22476674593053758  0.31919725122861564  1.0000
  H   H2        1.0  0.8264123164117336  0.20615089312195778  0.8844982217997313  1.0000
  H   H3        1.0  0.9944723984226584  0.46730164997279644  0.2241135248914361  1.0000
  H   H4        1.0  0.0015080238226801157  0.6979246963746846  0.833995646215044  1.0000
  H   H5        1.0  0.6291571268811822  0.5900981882587075  0.48777381487889215  1.0000
  H   H6        1.0  0.5133718363940716  0.143764341250062  0.04756537452340126  1.0000
  H   H7        1.0  0.5730635086074471  0.21685742656700313  0.14673857251182199  1.0000
  H   H8        1.0  0.09772711573168635  0.06734864070313051  0.4662132363009732  1.0000
  H   H9        1.0  0.17142164194956422  0.8740908214822412  0.7791089406237006  1.0000
  H   H10       1.0  0.8882464076741599  0.18326991330832243  0.3140045456821099  1.0000
  H   H11       1.0  0.45288819167762995  0.7651617033407092  0.40778956888243556  1.0000
  H   H12       1.0  0.08102825144305825  0.3339192597195506  0.32277492294088006  1.0000
  H   H13       1.0  0.25967297959141433  0.2909555926453322  0.8748180645343382  1.0000
  H   H14       1.0  0.2679882328957319  0.4559283647686243  0.14301937073469162  1.0000
  H   H15       1.0  0.5673577655106783  0.9006681032478809  0.1818421222269535  1.0000
  H   H16       1.0  0.2840468497015536  0.8811916932463646  0.2677763574756682  1.0000
  S   S1        1.0  0.9350217124447227  0.12844664661679417  0.9033707544440404  1.0000
  S   S2        1.0  0.7092239990597591  0.6293625661637634  0.9065314212930389  1.0000
  S   S3        1.0  0.5171563669064199  0.5460486150113866  0.24095055065117776  1.0000
  S   S4        1.0  0.8262186816427857  0.027259429218247533  0.04549398401286453  1.0000
  S   S5        1.0  0.9284474911692087  0.35747420066036284  0.60847386601381  1.0000
  S   S6        1.0  0.6745353384176269  0.6452473769895732  0.792543071846012  1.0000
  S   S7        1.0  0.4002626178553328  0.34006146516185254  0.10640741786482977  1.0000
  S   S8        1.0  0.2636423618387198  0.19387426017783582  0.1368750741239637  1.0000
data_image124
_chemical_formula_structural       H16S8
_chemical_formula_sum              "H16 S8"
_cell_length_a       8.83753075774048
_cell_length_b       8.83753075774048
_cell_length_c       8.83753075774048
_cell_angle_alpha    118.690318510586
_cell_angle_beta     118.69031851058598
_cell_angle_gamma    92.28380992055807

_space_group_name_H-M_alt    "P 1"
_space_group_IT_number       1

loop_
  _space_group_symop_operation_xyz
  'x, y, z'

loop_
  _atom_site_type_symbol
  _atom_site_label
  _atom_site_symmetry_multiplicity
  _atom_site_fract_x
  _atom_site_fract_y
  _atom_site_fract_z
  _atom_site_occupancy
  H   H1        1.0  0.3466610878240317  0.7013584959786385  0.2829735637642443  1.0000
  H   H2        1.0  0.3380950838327408  0.6021278947591782  0.3298660982400179  1.0000
  H   H3        1.0  0.8240118310786784  0.8404123308137059  0.2336838529445231  1.0000
  H   H4        1.0  0.5338996171485633  0.7691811765544116  0.467968215350993  1.0000
  H   H5        1.0  0.5503539165947586  0.5010555082699284  0.2272982334252447  1.0000
  H   H6        1.0  0.9456940572708845  0.5930692218244076  0.2845848947763443  1.0000
  H   H7        1.0  0.5830341854598373  0.1009275738033466  0.8329435004852712  1.0000
  H   H8        1.0  0.23916704300791025  0.19233551749493927  0.025087312678806484  1.0000
  H   H9        1.0  0.3052963390946388  0.24291740451008081  0.8617588290944695  1.0000
  H   H10       1.0  0.09212883614236489  0.9609007411636412  0.18328201619442552  1.0000
  H   H11       1.0  0.2882974473759532  0.4052485404536128  0.3817290375009179  1.0000
  H   H12       1.0  0.027043903712183237  0.40535248816013336  0.32117829425260425  1.0000
  H   H13       1.0  0.28647850593551993  0.632024385035038  0.30530125612858683  1.0000
  H   H14       1.0  0.5476279221475124  0.10998823307454586  0.27631986513733864  1.0000
  H   H15       1.0  0.4379650913178921  0.8455357383936644  0.019038965925574303  1.0000
  H   H16       1.0  0.723920455086045  0.19711915543302894  0.13360525434836745  1.0000
  S   S1        1.0  0.30194030317943543  0.10460176557535306  0.6782332942821085  1.0000
  S   S2        1.0  0.5502236301545054  0.746969235362485  0.44099809316685423  1.0000
  S   S3        1.0  0.5791563382117602  0.6677961347158998  0.3912659506604541  1.0000
  S   S4        1.0  0.4738323754281737  0.1290618502534926  0.7292620245716535  1.0000
  S   S5        1.0  0.6596933279652148  0.3991409142035991  0.577047199010849  1.0000
  S   S6        1.0  0.9368634049315006  0.5282808082411066  0.10919051694509108  1.0000
  S   S7        1.0  0.33959194435738027  0.6915288941236213  0.8105818699332303  1.0000
  S   S8        1.0  0.9293899551557843  0.756238006404601  0.5011672888649628  1.0000
data_image125
_chemical_formula_structural       H16S8
_chemical_formula_sum              "H16 S8"
_cell_length_a       8.83753075774048
_cell_length_b       8.83753075774048
_cell_length_c       8.83753075774048
_cell_angle_alpha    118.690318510586
_cell_angle_beta     118.69031851058598
_cell_angle_gamma    92.28380992055807

_space_group_name_H-M_alt    "P 1"
_space_group_IT_number       1

loop_
  _space_group_symop_operation_xyz
  'x, y, z'

loop_
  _atom_site_type_symbol
  _atom_site_label
  _atom_site_symmetry_multiplicity
  _atom_site_fract_x
  _atom_site_fract_y
  _atom_site_fract_z
  _atom_site_occupancy
  H   H1        1.0  0.9870081751141697  0.3545912578701973  0.5352019793353975  1.0000
  H   H2        1.0  0.46086274832487106  0.09556632861495018  0.09897315874695778  1.0000
  H   H3        1.0  0.9591319425962865  0.28194391541182995  0.16617870843037963  1.0000
  H   H4        1.0  0.5621504518203437  0.5560408155433834  0.687834831798682  1.0000
  H   H5        1.0  0.08387172757647932  0.0948517780052498  0.39451516972621903  1.0000
  H   H6        1.0  0.8172516599297523  0.6281542014330626  0.1082952544093132  1.0000
  H   H7        1.0  0.3045441855210811  0.12346767593408003  0.8788490174338222  1.0000
  H   H8        1.0  0.9151634518057108  0.5850006786058657  0.572462352050934  1.0000
  H   H9        1.0  0.3005421725101769  0.8346368153579533  0.02263386733829975  1.0000
  H   H10       1.0  0.4763202058384195  0.15784341841936111  0.4949277671985328  1.0000
  H   H11       1.0  0.6391514297574759  0.8547547589987516  0.9568946184590459  1.0000
  H   H12       1.0  0.45510315569117665  0.469003576785326  0.9790345017099753  1.0000
  H   H13       1.0  0.33673686580732465  0.5874806330539286  0.4972203298821114  1.0000
  H   H14       1.0  0.5691426442936063  0.15933760069310665  0.7912634015083313  1.0000
  H   H15       1.0  0.9220574591308832  0.3559224586933851  0.8103579580783844  1.0000
  H   H16       1.0  0.7828038436127827  0.5150539060123265  0.49247738206759095  1.0000
  S   S1        1.0  0.01982227503322065  0.6309337417478673  0.2935380356502719  1.0000
  S   S2        1.0  0.6704138239147142  0.5183930961648002  0.6847509534563869  1.0000
  S   S3        1.0  0.3764382616209332  0.4059996109572239  0.5129822096787393  1.0000
  S   S4        1.0  0.41744900890626013  0.2111398755805567  0.1416492218268104  1.0000
  S   S5        1.0  0.2204452467849478  0.9880128426011652  0.23112447676248848  1.0000
  S   S6        1.0  0.8360788288991898  0.5310656835790724  0.345665504806675  1.0000
  S   S7        1.0  0.6724659474566579  0.614775292458944  0.8893460297767888  1.0000
  S   S8        1.0  0.24706726991280448  0.9976817027200013  0.1493032625876367  1.0000
data_image126
_chemical_formula_structural       H16S8
_chemical_formula_sum              "H16 S8"
_cell_length_a       8.83753075774048
_cell_length_b       8.83753075774048
_cell_length_c       8.83753075774048
_cell_angle_alpha    118.690318510586
_cell_angle_beta     118.69031851058598
_cell_angle_gamma    92.28380992055807

_space_group_name_H-M_alt    "P 1"
_space_group_IT_number       1

loop_
  _space_group_symop_operation_xyz
  'x, y, z'

loop_
  _atom_site_type_symbol
  _atom_site_label
  _atom_site_symmetry_multiplicity
  _atom_site_fract_x
  _atom_site_fract_y
  _atom_site_fract_z
  _atom_site_occupancy
  H   H1        1.0  0.7021653475239873  0.35110642691142857  0.988919171039015  1.0000
  H   H2        1.0  0.9279361329972744  0.3045590855181217  0.7160716652870178  1.0000
  H   H3        1.0  0.13961202325299382  0.11723679024726152  0.8908884092234075  1.0000
  H   H4        1.0  0.2518536918796599  0.66269142460078  0.6706944060861133  1.0000
  H   H5        1.0  0.5589439119212329  0.9249654435552657  0.03632215748075396  1.0000
  H   H6        1.0  0.6728230826556683  0.6229282151907682  0.2696075923740864  1.0000
  H   H7        1.0  0.1506325537338853  0.2989528621546924  0.43016224820166826  1.0000
  H   H8        1.0  0.46062559727579355  0.47306129784556106  0.06235848809592426  1.0000
  H   H9        1.0  0.32992533408105373  0.47031198907643557  0.12669661454856396  1.0000
  H   H10       1.0  0.4284745143377222  0.899651481769979  0.07410185603657737  1.0000
  H   H11       1.0  0.5812874650582671  0.14903609920293093  0.6963807232677937  1.0000
  H   H12       1.0  0.9980472382158041  0.3624334214255214  0.35901712719351053  1.0000
  H   H13       1.0  0.7585464557632804  0.42470526276156306  0.45069528702879325  1.0000
  H   H14       1.0  0.49536092206835747  0.7312253396958113  0.7330017611384392  1.0000
  H   H15       1.0  0.2891066391021013  0.28201100043952465  0.933596869930625  1.0000
  H   H16       1.0  0.028949858038686216  0.7877167141996324  0.7082089278846979  1.0000
  S   S1        1.0  0.04206804820569232  0.7620469420216978  0.7184234699234366  1.0000
  S   S2        1.0  0.09615763206966221  0.9947740328498185  0.4468913710443303  1.0000
  S   S3        1.0  0.034199685833300464  0.8931537680909969  0.3056819373741746  1.0000
  S   S4        1.0  0.9618096866761334  0.41303091030567884  0.4626171528361738  1.0000
  S   S5        1.0  0.06751674530096352  0.6181180701823905  0.3048617895692587  1.0000
  S   S6        1.0  0.35574627108871937  0.20530080795288086  0.03232971450779587  1.0000
  S   S7        1.0  0.14644774422049522  0.9781378284096718  0.7793018325974117  1.0000
  S   S8        1.0  0.29715729675081093  0.8699892811710015  0.40328305040020496  1.0000
data_image127
_chemical_formula_structural       H16S8
_chemical_formula_sum              "H16 S8"
_cell_length_a       8.83753075774048
_cell_length_b       8.83753075774048
_cell_length_c       8.83753075774048
_cell_angle_alpha    118.690318510586
_cell_angle_beta     118.69031851058598
_cell_angle_gamma    92.28380992055807

_space_group_name_H-M_alt    "P 1"
_space_group_IT_number       1

loop_
  _space_group_symop_operation_xyz
  'x, y, z'

loop_
  _atom_site_type_symbol
  _atom_site_label
  _atom_site_symmetry_multiplicity
  _atom_site_fract_x
  _atom_site_fract_y
  _atom_site_fract_z
  _atom_site_occupancy
  H   H1        1.0  0.871705956524238  0.7996377148665488  0.5531549733132124  1.0000
  H   H2        1.0  0.6099361293017864  0.06586244329810143  0.3878707215189934  1.0000
  H   H3        1.0  0.6178509574383497  0.9240720579400659  0.4641985525377095  1.0000
  H   H4        1.0  0.44155915873125196  0.24635493336245418  0.4327663274452789  1.0000
  H   H5        1.0  0.6771816241089255  0.012442897539585829  0.9469031242770143  1.0000
  H   H6        1.0  0.9747563637793064  0.7913328763097525  0.48838791996240616  1.0000
  H   H7        1.0  0.25906031765043736  0.1246804884285666  0.9899969967082143  1.0000
  H   H8        1.0  0.3024381143040955  0.13206086348509416  0.06984974833903834  1.0000
  H   H9        1.0  0.47420685831457376  0.8460380393080413  0.8824567198753357  1.0000
  H   H10       1.0  0.0020284082274883986  0.42990054562687874  0.8684366011293605  1.0000
  H   H11       1.0  0.07036974839866161  0.3293991321697831  0.39957614708691835  1.0000
  H   H12       1.0  0.4723084410652518  0.53852529078722  0.6738449360709637  1.0000
  H   H13       1.0  0.3356076800264418  0.6058386098593473  0.5684341555315768  1.0000
  H   H14       1.0  0.4472908806055784  0.7508334089070559  0.06302925199270248  1.0000
  H   H15       1.0  0.7564631011337042  0.48957260698080063  0.5726996120065451  1.0000
  H   H16       1.0  0.2918645334430039  0.18930739955976605  0.040243386290967464  1.0000
  S   S1        1.0  0.580104987078812  0.7938475429546088  0.4090281499666162  1.0000
  S   S2        1.0  0.9435345203382894  0.8611551810754463  0.8014269505511038  1.0000
  S   S3        1.0  0.13041844798863167  0.9879317322047427  0.0983949874935206  1.0000
  S   S4        1.0  0.04870561062125489  0.18760727508924901  0.056303537130588666  1.0000
  S   S5        1.0  0.5573617001064122  0.1992228825110942  0.012114003766328096  1.0000
  S   S6        1.0  0.9168339008465409  0.8860935255652294  0.2525898891617544  1.0000
  S   S7        1.0  0.03405481961090118  0.573483327170834  0.4416498923092149  1.0000
  S   S8        1.0  0.13160632850485854  0.20317424996756017  0.8857139213941991  1.0000
data_image128
_chemical_formula_structural       H16S8
_chemical_formula_sum              "H16 S8"
_cell_length_a       8.83753075774048
_cell_length_b       8.83753075774048
_cell_length_c       8.83753075774048
_cell_angle_alpha    118.690318510586
_cell_angle_beta     118.69031851058598
_cell_angle_gamma    92.28380992055807

_space_group_name_H-M_alt    "P 1"
_space_group_IT_number       1

loop_
  _space_group_symop_operation_xyz
  'x, y, z'

loop_
  _atom_site_type_symbol
  _atom_site_label
  _atom_site_symmetry_multiplicity
  _atom_site_fract_x
  _atom_site_fract_y
  _atom_site_fract_z
  _atom_site_occupancy
  H   H1        1.0  0.9311162591911852  0.7323413228150457  0.32794042816385627  1.0000
  H   H2        1.0  0.6757706366479397  0.4403555616736412  0.5083087384700775  1.0000
  H   H3        1.0  0.2565074530430138  0.2639585603028536  0.3167797848582268  1.0000
  H   H4        1.0  0.9619015222415328  0.8017586339265108  0.1621735157823423  1.0000
  H   H5        1.0  0.16846261266618967  0.9325681778136641  0.19731479417532682  1.0000
  H   H6        1.0  0.37962545081973076  0.8072672225534916  0.5562924705445766  1.0000
  H   H7        1.0  0.09487099945545197  0.3110075733566191  0.29149621026590466  1.0000
  H   H8        1.0  0.9449712312780321  0.19992488209391013  0.07437468989519402  1.0000
  H   H9        1.0  0.5515716867521405  0.8074965067207813  0.07290961313992739  1.0000
  H   H10       1.0  0.9619037723168731  0.3563567786477506  0.7950946210185066  1.0000
  H   H11       1.0  0.9190367506816983  0.0718840779736638  0.8228515014052391  1.0000
  H   H12       1.0  0.14323588367551565  0.05853539891541004  0.5092835428658873  1.0000
  H   H13       1.0  0.741806723177433  0.829661872703582  0.5921788579871645  1.0000
  H   H14       1.0  0.007881652563810349  0.08430556021630764  0.18448173254728317  1.0000
  H   H15       1.0  0.5006286799907684  0.7367159221321344  0.23153417743742466  1.0000
  H   H16       1.0  0.7686541526345536  0.5602754377759993  0.09437376167625189  1.0000
  S   S1        1.0  0.6461509807850234  0.005044760531745851  0.47238535070209764  1.0000
  S   S2        1.0  0.204800337087363  0.43095143511891365  0.46089169377228245  1.0000
  S   S3        1.0  0.7954078034126724  0.4180487741250545  0.41482752875890583  1.0000
  S   S4        1.0  0.6154209657106549  0.7594098029658198  0.1711274633416906  1.0000
  S   S5        1.0  0.1365540559636429  0.0437296541640535  0.6719436252024025  1.0000
  S   S6        1.0  0.7807378228753805  0.01593604648951441  0.11482637509470806  1.0000
  S   S7        1.0  0.816532059921883  0.9811228010803461  0.7119056613955763  1.0000
  S   S8        1.0  0.570311043120455  0.5113315591588616  0.9194735604105517  1.0000
data_image129
_chemical_formula_structural       H16S8
_chemical_formula_sum              "H16 S8"
_cell_length_a       8.83753075774048
_cell_length_b       8.83753075774048
_cell_length_c       8.83753075774048
_cell_angle_alpha    118.690318510586
_cell_angle_beta     118.69031851058598
_cell_angle_gamma    92.28380992055807

_space_group_name_H-M_alt    "P 1"
_space_group_IT_number       1

loop_
  _space_group_symop_operation_xyz
  'x, y, z'

loop_
  _atom_site_type_symbol
  _atom_site_label
  _atom_site_symmetry_multiplicity
  _atom_site_fract_x
  _atom_site_fract_y
  _atom_site_fract_z
  _atom_site_occupancy
  H   H1        1.0  0.6977679228875786  0.5445730958599597  0.06762497639283538  1.0000
  H   H2        1.0  0.2892457842826843  0.94608960673213  0.7399787437170744  1.0000
  H   H3        1.0  0.6885783602483571  0.8965576346963644  0.31182332476601005  1.0000
  H   H4        1.0  0.03181764390319586  0.3420828324742615  0.5572263333015144  1.0000
  H   H5        1.0  0.6031193556264043  0.12074710568413138  0.7021580670261756  1.0000
  H   H6        1.0  0.03107728622853756  0.06323139555752277  0.5981611981987953  1.0000
  H   H7        1.0  0.8969626852776855  0.462916933465749  0.7894704113714397  1.0000
  H   H8        1.0  0.043991511687636375  0.6427153596305288  0.32765579159604385  1.0000
  H   H9        1.0  0.603737027850002  0.3015899546444416  0.6685812333598733  1.0000
  H   H10       1.0  0.07211619685404003  0.916338908020407  0.2914911893894896  1.0000
  H   H11       1.0  0.17876506224274635  0.06310044042766094  0.48317447351291776  1.0000
  H   H12       1.0  0.9828630364499986  0.32033082097768784  0.8975166113814339  1.0000
  H   H13       1.0  8.774269372224808e-05  0.2915417146869004  0.6457972881762544  1.0000
  H   H14       1.0  0.14825054071843624  0.30460930056869984  0.7480499446392059  1.0000
  H   H15       1.0  0.7526823002845049  0.6212429273873568  0.5029202979058027  1.0000
  H   H16       1.0  0.0817172679817304  0.883829799015075  0.8770236223936081  1.0000
  S   S1        1.0  0.051708782732021064  0.05718930857256055  0.9870924799761269  1.0000
  S   S2        1.0  0.8667792971245944  0.4457486030878499  0.6573075037449598  1.0000
  S   S3        1.0  0.33451080103986897  0.6354025441687554  0.765796843013959  1.0000
  S   S4        1.0  0.03483444487210363  0.08908611501101404  0.6251586458529346  1.0000
  S   S5        1.0  0.8536233289632946  0.3664841731078923  0.608751552645117  1.0000
  S   S6        1.0  0.02454813162330538  0.6218830019934103  0.2413595484686084  1.0000
  S   S7        1.0  0.6889376570470631  0.5603682831861079  0.7979554259363795  1.0000
  S   S8        1.0  0.2837993797438685  0.055267099174670875  0.665787928388454  1.0000
data_image130
_chemical_formula_structural       H16S8
_chemical_formula_sum              "H16 S8"
_cell_length_a       8.83753075774048
_cell_length_b       8.83753075774048
_cell_length_c       8.83753075774048
_cell_angle_alpha    118.690318510586
_cell_angle_beta     118.69031851058598
_cell_angle_gamma    92.28380992055807

_space_group_name_H-M_alt    "P 1"
_space_group_IT_number       1

loop_
  _space_group_symop_operation_xyz
  'x, y, z'

loop_
  _atom_site_type_symbol
  _atom_site_label
  _atom_site_symmetry_multiplicity
  _atom_site_fract_x
  _atom_site_fract_y
  _atom_site_fract_z
  _atom_site_occupancy
  H   H1        1.0  0.3294477416202426  0.7357403684873134  0.6382049531675875  1.0000
  H   H2        1.0  0.019632160663604736  0.3170584999024868  0.09168700873851776  1.0000
  H   H3        1.0  0.3880617334507406  0.9769170982763171  0.19959449744783342  1.0000
  H   H4        1.0  0.5768801898229867  0.8708767225034535  0.19586591933330055  1.0000
  H   H5        1.0  0.8036774974316359  0.1064460112247616  0.3822225978365168  1.0000
  H   H6        1.0  0.677223801612854  0.03518362529575825  0.310131449252367  1.0000
  H   H7        1.0  0.5379096739925444  0.9216341482824646  0.846034349873662  1.0000
  H   H8        1.0  0.3294594348408282  0.19245943834539503  0.7972956066951156  1.0000
  H   H9        1.0  0.7478777505457401  0.11835565371438861  0.32750861532986164  1.0000
  H   H10       1.0  0.8041644070763141  0.4071723544038832  0.05568729585502297  1.0000
  H   H11       1.0  0.6018663253635168  0.5269277524203062  0.3616394349373877  1.0000
  H   H12       1.0  0.49519113823771477  0.44793105870485306  0.6256696505006403  1.0000
  H   H13       1.0  0.07510914467275143  0.4422166892327368  0.4090588828548789  1.0000
  H   H14       1.0  0.6249712677672505  0.26177639327943325  0.33354077115654945  1.0000
  H   H15       1.0  0.38632408902049065  0.3459550552070141  0.7101208679378033  1.0000
  H   H16       1.0  0.5847487654536963  0.7157844607718289  0.5208162791095674  1.0000
  S   S1        1.0  0.4754031503107399  0.8975120768882334  0.8404739779507509  1.0000
  S   S2        1.0  0.85398158733733  0.17011837055906653  0.8100773992482573  1.0000
  S   S3        1.0  0.9262995589378988  0.032251955883111805  0.360787658020854  1.0000
  S   S4        1.0  0.28771964833140373  0.026208870578557253  0.09449253656202927  1.0000
  S   S5        1.0  0.20101735630305484  0.7315540903946385  0.7201535091735423  1.0000
  S   S6        1.0  0.3053929003654048  0.1844181165797636  0.10365759278647602  1.0000
  S   S7        1.0  0.9159130369080231  0.9649841415230185  0.4691560257560923  1.0000
  S   S8        1.0  0.3732300454576034  0.26958226796705276  0.14274263964034617  1.0000
data_image131
_chemical_formula_structural       H16S8
_chemical_formula_sum              "H16 S8"
_cell_length_a       8.83753075774048
_cell_length_b       8.83753075774048
_cell_length_c       8.83753075774048
_cell_angle_alpha    118.690318510586
_cell_angle_beta     118.69031851058598
_cell_angle_gamma    92.28380992055807

_space_group_name_H-M_alt    "P 1"
_space_group_IT_number       1

loop_
  _space_group_symop_operation_xyz
  'x, y, z'

loop_
  _atom_site_type_symbol
  _atom_site_label
  _atom_site_symmetry_multiplicity
  _atom_site_fract_x
  _atom_site_fract_y
  _atom_site_fract_z
  _atom_site_occupancy
  H   H1        1.0  0.5735020267311484  0.7344695862848312  0.6594184199348092  1.0000
  H   H2        1.0  0.8198201544582844  0.5759197361767292  0.8252623621374369  1.0000
  H   H3        1.0  0.28365969005972147  0.03820083849132061  0.7730838740244508  1.0000
  H   H4        1.0  0.23814783431589603  0.5688130888156593  0.6879965171974618  1.0000
  H   H5        1.0  0.5682036844082177  0.4638130327221006  0.14714938192628324  1.0000
  H   H6        1.0  0.2664452847093344  0.2990440037101507  0.718270655721426  1.0000
  H   H7        1.0  0.23273178306408226  0.8983622396481223  0.2725561214610934  1.0000
  H   H8        1.0  0.9415773674845695  0.024188653798773885  0.759860843711067  1.0000
  H   H9        1.0  0.4507819698192179  0.14758047834038734  0.24215316586196423  1.0000
  H   H10       1.0  0.07189943036064506  0.5978493364527822  0.5459959298605099  1.0000
  H   H11       1.0  0.3158320812508464  0.385790859349072  0.1682190177962184  1.0000
  H   H12       1.0  0.8768453067168593  0.4942159876227379  0.38035681075416505  1.0000
  H   H13       1.0  0.39454062888398767  0.8419599016197026  0.24748386989813298  1.0000
  H   H14       1.0  0.2034523319453001  0.5165368150919676  0.7691830694675446  1.0000
  H   H15       1.0  0.6426700782030821  0.38861075416207314  0.6294744219630957  1.0000
  H   H16       1.0  0.7720721397781745  0.6075609251856804  0.1994518763385713  1.0000
  S   S1        1.0  0.6327757318504155  0.14979938615579158  0.3430821957954322  1.0000
  S   S2        1.0  0.16984922054689378  0.7526871367590502  0.4036258071428165  1.0000
  S   S3        1.0  0.40645539354227367  0.49230572720989585  0.04201559806824662  1.0000
  S   S4        1.0  0.8730911919265054  0.6747389395022765  0.15632655256194994  1.0000
  S   S5        1.0  0.3761134354863316  0.8767982170684263  0.4405791687313467  1.0000
  S   S6        1.0  0.5472497842274606  0.40333809156436473  0.47076106391614303  1.0000
  S   S7        1.0  0.8030702891992405  0.021768844220787287  0.4976003817282617  1.0000
  S   S8        1.0  0.8040144115220755  0.8371360622113571  0.23785965517163277  1.0000
data_image132
_chemical_formula_structural       H16S8
_chemical_formula_sum              "H16 S8"
_cell_length_a       8.83753075774048
_cell_length_b       8.83753075774048
_cell_length_c       8.83753075774048
_cell_angle_alpha    118.690318510586
_cell_angle_beta     118.69031851058598
_cell_angle_gamma    92.28380992055807

_space_group_name_H-M_alt    "P 1"
_space_group_IT_number       1

loop_
  _space_group_symop_operation_xyz
  'x, y, z'

loop_
  _atom_site_type_symbol
  _atom_site_label
  _atom_site_symmetry_multiplicity
  _atom_site_fract_x
  _atom_site_fract_y
  _atom_site_fract_z
  _atom_site_occupancy
  H   H1        1.0  0.6666821301914752  0.4303756451699883  0.6524763407651335  1.0000
  H   H2        1.0  0.9620806090533733  0.8787550330162048  0.38915431685745716  1.0000
  H   H3        1.0  0.2592967636883259  0.11422643437981606  0.20591442775912583  1.0000
  H   H4        1.0  0.5184142112266272  0.2144958726130426  0.39447319906321354  1.0000
  H   H5        1.0  0.06010835990309715  0.3530183150433004  0.530254076467827  1.0000
  H   H6        1.0  0.7972112316638231  0.2401313204318285  0.8473341129720211  1.0000
  H   H7        1.0  0.5450940346345305  0.6567214005044661  0.28016958525404334  1.0000
  H   H8        1.0  0.6057359422557056  0.5175042686751112  0.755999902554322  1.0000
  H   H9        1.0  0.1874427837319672  0.9280959451571107  0.019918281584978104  1.0000
  H   H10       1.0  0.2651686759199947  0.4404131246265024  0.1549814878962934  1.0000
  H   H11       1.0  0.7785439854487777  0.878372386097908  0.8192710159346461  1.0000
  H   H12       1.0  0.4659126764163375  0.9921205835416913  0.7420853909570724  1.0000
  H   H13       1.0  0.621305441018194  0.8359905420802534  0.22066412132699043  1.0000
  H   H14       1.0  0.9246303327381611  0.07079311273992062  0.41810037568211555  1.0000
  H   H15       1.0  0.7202818319201469  0.779662175104022  0.001472674310207367  1.0000
  H   H16       1.0  0.8275164234219119  0.22943253442645073  0.9158071908168495  1.0000
  S   S1        1.0  0.6653953450731933  0.9017732167267241  0.07027313137223246  1.0000
  S   S2        1.0  0.8983235689811409  0.027374872588552535  0.010670762276276946  1.0000
  S   S3        1.0  0.5445841703949554  0.5567811516812071  0.6414508758170996  1.0000
  S   S4        1.0  0.7383944541797973  0.8339883774751797  0.4031511190114543  1.0000
  S   S5        1.0  0.4005786209600046  0.30995246407110244  0.54219532571733  1.0000
  S   S6        1.0  0.498265661415644  0.5779672445496544  0.8234273595153354  1.0000
  S   S7        1.0  0.9149931386345997  0.7179965595714748  0.7854342319042189  1.0000
  S   S8        1.0  0.758355398545973  0.2959082057932392  0.44622892048209906  1.0000
data_image133
_chemical_formula_structural       H16S8
_chemical_formula_sum              "H16 S8"
_cell_length_a       8.83753075774048
_cell_length_b       8.83753075774048
_cell_length_c       8.83753075774048
_cell_angle_alpha    118.690318510586
_cell_angle_beta     118.69031851058598
_cell_angle_gamma    92.28380992055807

_space_group_name_H-M_alt    "P 1"
_space_group_IT_number       1

loop_
  _space_group_symop_operation_xyz
  'x, y, z'

loop_
  _atom_site_type_symbol
  _atom_site_label
  _atom_site_symmetry_multiplicity
  _atom_site_fract_x
  _atom_site_fract_y
  _atom_site_fract_z
  _atom_site_occupancy
  H   H1        1.0  0.7110316252801567  0.8710758895613253  0.816218716558069  1.0000
  H   H2        1.0  0.2214428223669529  0.08426802977919579  0.16936885006725788  1.0000
  H   H3        1.0  0.2823493876494467  0.8590766554698348  0.8001047736033797  1.0000
  H   H4        1.0  0.22017361293546855  0.13731700833886862  0.4111635307635879  1.0000
  H   H5        1.0  0.6097772405482829  0.7011566129513085  0.5207121500279754  1.0000
  H   H6        1.0  0.22424960508942604  0.787488741800189  0.9654432944953442  1.0000
  H   H7        1.0  0.2004130776040256  0.835240026586689  0.2211573242675513  1.0000
  H   H8        1.0  0.6599886869080365  0.048290847917087376  0.8280965237645432  1.0000
  H   H9        1.0  0.7945659877732396  0.4489791505038738  0.07521154265850782  1.0000
  H   H10       1.0  0.4496819481719285  0.6520523384679109  0.042596384533680975  1.0000
  H   H11       1.0  0.16612786334007978  0.5247117001563311  0.9742475426755846  1.0000
  H   H12       1.0  0.572707406245172  0.4548242902383208  0.44582845410332084  1.0000
  H   H13       1.0  0.41334110544994473  0.32806034898385406  0.0621558470884338  1.0000
  H   H14       1.0  0.3649038402363658  0.17931627482175827  0.2810862548649311  1.0000
  H   H15       1.0  0.1250380538403988  0.7384139727801085  0.02942890301346779  1.0000
  H   H16       1.0  0.2845652351388708  0.872870416380465  0.5190392327494919  1.0000
  S   S1        1.0  0.2260219765594229  0.357313294603955  0.2080193713409244  1.0000
  S   S2        1.0  0.23964740510564297  0.9493755314033478  0.7622627466917038  1.0000
  S   S3        1.0  0.9440020914043998  0.1664979355991818  0.30512510842527263  1.0000
  S   S4        1.0  0.7355180874001235  0.632797907339409  0.18020806420827284  1.0000
  S   S5        1.0  0.515653014765121  0.1551134375622496  0.7754856224637479  1.0000
  S   S6        1.0  0.5930249565280974  0.8761654302943498  0.7842879028175958  1.0000
  S   S7        1.0  0.4582842157687992  0.06834181945305318  0.8639064978633542  1.0000
  S   S8        1.0  0.15361833144561388  0.6072608506074175  0.8940235356567428  1.0000
data_image134
_chemical_formula_structural       H16S8
_chemical_formula_sum              "H16 S8"
_cell_length_a       8.83753075774048
_cell_length_b       8.83753075774048
_cell_length_c       8.83753075774048
_cell_angle_alpha    118.690318510586
_cell_angle_beta     118.69031851058598
_cell_angle_gamma    92.28380992055807

_space_group_name_H-M_alt    "P 1"
_space_group_IT_number       1

loop_
  _space_group_symop_operation_xyz
  'x, y, z'

loop_
  _atom_site_type_symbol
  _atom_site_label
  _atom_site_symmetry_multiplicity
  _atom_site_fract_x
  _atom_site_fract_y
  _atom_site_fract_z
  _atom_site_occupancy
  H   H1        1.0  0.3592948103323579  0.8797541037201881  0.172213846584782  1.0000
  H   H2        1.0  0.37036124989390373  0.24469638615846634  0.8159849215298891  1.0000
  H   H3        1.0  0.33872366789728403  0.24572311341762543  0.3800490244757384  1.0000
  H   H4        1.0  0.7524930904619396  0.4412914696149528  0.6502650077018188  1.0000
  H   H5        1.0  0.5543455339502543  0.8066650964319706  0.43251896084984764  1.0000
  H   H6        1.0  0.8575077503919601  0.9098979327827692  0.9394189678132534  1.0000
  H   H7        1.0  0.8998515394050628  0.6137854271219112  0.2928360600490123  1.0000
  H   H8        1.0  0.19768579164519906  0.9497791369212791  0.8086729812202975  1.0000
  H   H9        1.0  0.3928540889173746  0.04506107745692134  0.050761242397129536  1.0000
  H   H10       1.0  0.18532843771390617  0.873767132172361  0.3518660330446437  1.0000
  H   H11       1.0  0.057568732649087906  0.4804767998866737  0.7629441805183887  1.0000
  H   H12       1.0  0.6846710313111544  0.3552550673484802  0.8201530589722097  1.0000
  H   H13       1.0  0.09489122498780489  0.8378279167227447  0.2637974815443158  1.0000
  H   H14       1.0  0.7472300995141268  0.815450182184577  0.8225904852151871  1.0000
  H   H15       1.0  0.09633160568773746  0.35907103307545185  0.5140562355518341  1.0000
  H   H16       1.0  0.11031370528507978  0.20163355814293027  0.5443457867950201  1.0000
  S   S1        1.0  0.5788584967958741  0.24599956991733052  0.4035746762965573  1.0000
  S   S2        1.0  0.5877771526575089  0.3947935374453664  0.6849298188462853  1.0000
  S   S3        1.0  0.07763223582878709  0.472080135717988  0.7014914369210601  1.0000
  S   S4        1.0  0.2986160928267054  0.015290828072465956  0.9013959545991383  1.0000
  S   S5        1.0  0.19518561731092632  0.5160837671719491  0.7297864679712802  1.0000
  S   S6        1.0  0.3732382394373417  0.5964072677306831  0.109404725022614  1.0000
  S   S7        1.0  0.1571674218866974  0.9722258654655889  0.7071818693075329  1.0000
  S   S8        1.0  0.07321188686182722  0.21835745021235198  0.5125408045714721  1.0000
data_image135
_chemical_formula_structural       H16S8
_chemical_formula_sum              "H16 S8"
_cell_length_a       8.83753075774048
_cell_length_b       8.83753075774048
_cell_length_c       8.83753075774048
_cell_angle_alpha    118.690318510586
_cell_angle_beta     118.69031851058598
_cell_angle_gamma    92.28380992055807

_space_group_name_H-M_alt    "P 1"
_space_group_IT_number       1

loop_
  _space_group_symop_operation_xyz
  'x, y, z'

loop_
  _atom_site_type_symbol
  _atom_site_label
  _atom_site_symmetry_multiplicity
  _atom_site_fract_x
  _atom_site_fract_y
  _atom_site_fract_z
  _atom_site_occupancy
  H   H1        1.0  0.011976017558481544  0.031497132731601596  0.859616382047534  1.0000
  H   H2        1.0  0.6510490141808987  0.5062954872846603  0.46393443644046783  1.0000
  H   H3        1.0  0.048259338829666376  0.5704481899738312  0.6566525360103697  1.0000
  H   H4        1.0  0.9368013008497655  0.05983476107940078  0.9924772995436797  1.0000
  H   H5        1.0  0.7654105189722031  0.3706258009187877  0.1399593692040071  1.0000
  H   H6        1.0  0.04219912737607956  0.9760899487882853  0.016973242163658142  1.0000
  H   H7        1.0  0.655161410337314  0.6252818466746248  0.1640782617032528  1.0000
  H   H8        1.0  0.16104333801195025  0.6129382976796478  0.756429499713704  1.0000
  H   H9        1.0  0.6422361335717142  0.8435262567363679  0.13604973815381527  1.0000
  H   H10       1.0  0.35511802486144006  0.16213736636564136  0.7247571813641116  1.0000
  H   H11       1.0  0.4498714581131935  0.42664150858763605  0.14973451336845756  1.0000
  H   H12       1.0  0.600806213915348  0.046060968190431595  0.8684341153129935  1.0000
  H   H13       1.0  0.01741880038753152  0.09433192573487759  0.8542256352957338  1.0000
  H   H14       1.0  0.43035511299967766  0.4265353986993432  0.5215986035764217  1.0000
  H   H15       1.0  0.8737626075744629  0.49971145763993263  0.834665808826685  1.0000
  H   H16       1.0  0.526952913030982  0.6981018120422959  0.987885722424835  1.0000
  S   S1        1.0  0.23821060748014133  0.5615624569509237  0.26594318746356294  1.0000
  S   S2        1.0  0.7913468163460493  0.2196894884109497  0.01855240762233734  1.0000
  S   S3        1.0  0.6583527503535151  0.8141674008220434  0.9965406730771065  1.0000
  S   S4        1.0  0.5903099662391469  0.05813579761888832  0.2660027187084779  1.0000
  S   S5        1.0  0.6183948813704774  0.36763044726103544  0.23507064464502037  1.0000
  S   S6        1.0  0.7030840143561363  0.1820931350812316  0.004545734263956547  1.0000
  S   S7        1.0  0.2568322382867336  0.016745913540944457  0.2259358181618154  1.0000
  S   S8        1.0  0.21858998882817104  0.9162826832616702  0.4755533548304811  1.0000
data_image136
_chemical_formula_structural       H16S8
_chemical_formula_sum              "H16 S8"
_cell_length_a       8.83753075774048
_cell_length_b       8.83753075774048
_cell_length_c       8.83753075774048
_cell_angle_alpha    118.690318510586
_cell_angle_beta     118.69031851058598
_cell_angle_gamma    92.28380992055807

_space_group_name_H-M_alt    "P 1"
_space_group_IT_number       1

loop_
  _space_group_symop_operation_xyz
  'x, y, z'

loop_
  _atom_site_type_symbol
  _atom_site_label
  _atom_site_symmetry_multiplicity
  _atom_site_fract_x
  _atom_site_fract_y
  _atom_site_fract_z
  _atom_site_occupancy
  H   H1        1.0  0.05399495642632246  0.8092269382905215  0.8863970940001309  1.0000
  H   H2        1.0  0.09075504913926125  0.4726991653442383  0.2874316833913326  1.0000
  H   H3        1.0  0.8438627235591412  0.5183522328734398  0.5358815647196025  1.0000
  H   H4        1.0  0.1393936355598271  0.003021943848580122  0.45830509056395385  1.0000
  H   H5        1.0  0.7246665072161704  0.5916330784093589  0.5186871315236203  1.0000
  H   H6        1.0  0.9866209607571363  0.04960133880376816  0.023309912532567978  1.0000
  H   H7        1.0  0.423090337542817  0.79309016559273  0.6842331953812391  1.0000
  H   H8        1.0  0.9873433192260563  0.2961623966693878  0.43432634125929326  1.0000
  H   H9        1.0  0.02906451979652047  0.926655710209161  0.6306396946310997  1.0000
  H   H10       1.0  0.7098579148296267  0.6676059467718005  0.10718787158839405  1.0000
  H   H11       1.0  0.6135274702683091  0.5538062648847699  0.5771984956227243  1.0000
  H   H12       1.0  0.7680300902575254  0.3582475883886218  0.5695242118090391  1.0000
  H   H13       1.0  0.26179447025060654  0.13479601265862584  0.652539805858396  1.0000
  H   H14       1.0  0.5381647991016507  0.13731742557138205  0.33571088686585426  1.0000
  H   H15       1.0  0.23776841908693314  0.41062377765774727  0.6708946973085403  1.0000
  H   H16       1.0  0.38907522871159017  0.7625263291411102  0.8170265522785485  1.0000
  S   S1        1.0  0.26654278286150657  0.06381080392748117  0.4319613173720427  1.0000
  S   S2        1.0  0.3141612745821476  0.630765538662672  0.33861370384693146  1.0000
  S   S3        1.0  0.5204268749803305  0.7296858131885529  0.3085014298558235  1.0000
  S   S4        1.0  0.952590617351234  0.9345303100999445  0.7017400135518983  1.0000
  S   S5        1.0  0.7277359600411728  0.881592478370294  0.9449232283513993  1.0000
  S   S6        1.0  0.47639529407024384  0.8898010067641735  0.8802792634814978  1.0000
  S   S7        1.0  0.8010935578495264  0.46639774506911635  0.42829845007508993  1.0000
  S   S8        1.0  0.5166164297261275  0.6215688470983878  0.5007826003711671  1.0000
data_image137
_chemical_formula_structural       H16S8
_chemical_formula_sum              "H16 S8"
_cell_length_a       8.83753075774048
_cell_length_b       8.83753075774048
_cell_length_c       8.83753075774048
_cell_angle_alpha    118.690318510586
_cell_angle_beta     118.69031851058598
_cell_angle_gamma    92.28380992055807

_space_group_name_H-M_alt    "P 1"
_space_group_IT_number       1

loop_
  _space_group_symop_operation_xyz
  'x, y, z'

loop_
  _atom_site_type_symbol
  _atom_site_label
  _atom_site_symmetry_multiplicity
  _atom_site_fract_x
  _atom_site_fract_y
  _atom_site_fract_z
  _atom_site_occupancy
  H   H1        1.0  0.7213301735464483  0.3188689739909023  0.742506358306855  1.0000
  H   H2        1.0  0.36004719510674477  0.7019885219633579  0.543010426685214  1.0000
  H   H3        1.0  0.873272130265832  0.1418964434415102  0.5642603952437639  1.0000
  H   H4        1.0  0.8594901778269559  0.6793342623859644  0.14891491040179972  1.0000
  H   H5        1.0  0.9634250337257981  0.15170288342051208  0.9098442276008427  1.0000
  H   H6        1.0  0.09931023977696896  0.6466789916157722  0.6256079263985157  1.0000
  H   H7        1.0  0.7881390659604222  0.562579574121628  0.19255682558286935  1.0000
  H   H8        1.0  0.3106389446184039  0.6533740519080311  0.5958932711509988  1.0000
  H   H9        1.0  0.67331233760342  0.9308245158754289  0.5869708880782127  1.0000
  H   H10       1.0  0.855227813590318  0.885196141898632  0.9860109909204766  1.0000
  H   H11       1.0  0.6078361226245761  0.8064336208626628  0.9581009475514293  1.0000
  H   H12       1.0  0.018214166164398193  0.5227596666663885  0.8895886205136776  1.0000
  H   H13       1.0  0.0033847163431346416  0.6109669180586934  0.33349180419463664  1.0000
  H   H14       1.0  0.25149354338645935  0.9081041822209954  0.8354023136198521  1.0000
  H   H15       1.0  0.5861301124095917  0.4955677278339863  0.39585219509899616  1.0000
  H   H16       1.0  0.6601817766204476  0.27778872242197394  0.09986835438758135  1.0000
  S   S1        1.0  0.6998664565617219  0.6770509623456746  0.06390058679971844  1.0000
  S   S2        1.0  0.49621644616127014  0.2743108309805393  0.30156043730676174  1.0000
  S   S3        1.0  0.7463494818657637  0.773836113512516  0.15989499539136887  1.0000
  S   S4        1.0  0.021734460664447397  0.2020666382741183  0.5007243947475217  1.0000
  S   S5        1.0  0.01762637821957469  0.8654795300681144  0.6042112917639315  1.0000
  S   S6        1.0  0.8827465549111366  0.4510164996609092  0.8808747716248035  1.0000
  S   S7        1.0  0.867233703378588  0.35347629990428686  0.062491672579199076  1.0000
  S   S8        1.0  0.8211561279604211  0.3682512058876455  0.23658768250606954  1.0000
data_image138
_chemical_formula_structural       H16S8
_chemical_formula_sum              "H16 S8"
_cell_length_a       8.83753075774048
_cell_length_b       8.83753075774048
_cell_length_c       8.83753075774048
_cell_angle_alpha    118.690318510586
_cell_angle_beta     118.69031851058598
_cell_angle_gamma    92.28380992055807

_space_group_name_H-M_alt    "P 1"
_space_group_IT_number       1

loop_
  _space_group_symop_operation_xyz
  'x, y, z'

loop_
  _atom_site_type_symbol
  _atom_site_label
  _atom_site_symmetry_multiplicity
  _atom_site_fract_x
  _atom_site_fract_y
  _atom_site_fract_z
  _atom_site_occupancy
  H   H1        1.0  0.6263076561735943  0.5521938318852335  0.5792411114089191  1.0000
  H   H2        1.0  0.5720036961138248  0.9142926894128323  0.7211708389222622  1.0000
  H   H3        1.0  0.8453175039030612  0.6322179576382041  0.6627190879080445  1.0000
  H   H4        1.0  0.6039232474286109  0.13352664653211832  0.11415704706450924  1.0000
  H   H5        1.0  0.10661376197822392  0.16853741626255214  0.3601669194176793  1.0000
  H   H6        1.0  0.19865955784916878  0.9549775458872318  0.14779984951019287  1.0000
  H   H7        1.0  0.8042353761848062  0.194462351500988  0.30074538639746606  1.0000
  H   H8        1.0  0.5357886208221316  0.3001996569801122  0.34589093772228807  1.0000
  H   H9        1.0  0.7756960690021515  0.5765407592989504  0.13855264522135258  1.0000
  H   H10       1.0  0.9980435746256262  0.8444327625911683  0.28060582146281376  1.0000
  H   H11       1.0  0.8891543196514249  0.5850613862276077  0.8414148341398686  1.0000
  H   H12       1.0  0.9476148467510939  0.08943416830152273  0.47368218656629324  1.0000
  H   H13       1.0  0.12405563611537218  0.5434069191105664  0.03930322173982859  1.0000
  H   H14       1.0  0.5914190611802042  0.3406244423240423  0.9755345396697521  1.0000
  H   H15       1.0  0.5124437436461449  0.1499236673116684  0.6972812078893185  1.0000
  H   H16       1.0  0.9754719561897218  0.28672021720558405  0.35886773467063904  1.0000
  S   S1        1.0  0.5349844521842897  0.5103991534560919  0.2128467223374173  1.0000
  S   S2        1.0  0.34384390711784363  0.8022003564983606  0.6250048596411943  1.0000
  S   S3        1.0  0.39438234455883503  0.033103588968515396  0.4446500986814499  1.0000
  S   S4        1.0  0.09256263339193538  0.5339271294651553  0.8263933167618234  1.0000
  S   S5        1.0  0.5413503346499056  0.8215055565815419  0.8715790268033743  1.0000
  S   S6        1.0  0.27716756612062454  0.37471391819417477  0.38637086749076843  1.0000
  S   S7        1.0  0.9659167570061982  0.6862216885201633  0.7867316529154778  1.0000
  S   S8        1.0  0.5223021616693586  0.9082541191019118  0.5350485362578183  1.0000
data_image139
_chemical_formula_structural       H16S8
_chemical_formula_sum              "H16 S8"
_cell_length_a       8.83753075774048
_cell_length_b       8.83753075774048
_cell_length_c       8.83753075774048
_cell_angle_alpha    118.690318510586
_cell_angle_beta     118.69031851058598
_cell_angle_gamma    92.28380992055807

_space_group_name_H-M_alt    "P 1"
_space_group_IT_number       1

loop_
  _space_group_symop_operation_xyz
  'x, y, z'

loop_
  _atom_site_type_symbol
  _atom_site_label
  _atom_site_symmetry_multiplicity
  _atom_site_fract_x
  _atom_site_fract_y
  _atom_site_fract_z
  _atom_site_occupancy
  H   H1        1.0  0.6018065270909574  0.34506103838793933  0.8293678509071469  1.0000
  H   H2        1.0  0.20125678554177284  0.4058151990175247  0.38364939019083977  1.0000
  H   H3        1.0  0.9280261462554336  0.9813738390803337  0.23596760304644704  1.0000
  H   H4        1.0  0.30441897199489176  0.5564333200454712  0.022858100332086906  1.0000
  H   H5        1.0  0.25728576560504735  0.09107376192696393  0.08561440906487405  1.0000
  H   H6        1.0  0.08693357184529305  0.6797443795949221  0.04112546145915985  1.0000
  H   H7        1.0  0.25171606079675257  0.823776108562015  0.9237346907611936  1.0000
  H   H8        1.0  0.7350926911458373  0.22465637233108282  0.1076473924331367  1.0000
  H   H9        1.0  0.3763419259339571  0.805492352694273  0.38485766761004925  1.0000
  H   H10       1.0  0.30021994037088007  0.11439887527376413  0.04817210393957794  1.0000
  H   H11       1.0  0.5853728372603655  0.36798130394890904  0.8577246535569429  1.0000
  H   H12       1.0  0.21808531042188406  0.14353857468813658  0.4354057786986232  1.0000
  H   H13       1.0  0.38596985675394535  0.7066971170715988  0.7842762031359598  1.0000
  H   H14       1.0  0.5529768206179142  0.3477255580946803  0.21290061250329018  1.0000
  H   H15       1.0  0.07721529342234135  0.5531872287392616  0.16023359261453152  1.0000
  H   H16       1.0  0.438256140332669  0.6092603099532425  0.9526860024780035  1.0000
  S   S1        1.0  0.37697348720394075  0.9241348252398893  0.6396641790634021  1.0000
  S   S2        1.0  0.4606911800801754  0.6685541328042746  0.1526965480297804  1.0000
  S   S3        1.0  0.8856257032603025  0.44218138605356216  0.3772326745092869  1.0000
  S   S4        1.0  0.3097702777595259  0.037676801439374685  0.532667971245246  1.0000
  S   S5        1.0  0.9015225815819576  0.2847134987823665  0.48786566499620676  1.0000
  S   S6        1.0  0.4706875868141651  0.8476306740194559  0.12875114753842354  1.0000
  S   S7        1.0  0.4747455161996186  0.7323086024262011  0.8192261233925819  1.0000
  S   S8        1.0  0.11829304834827781  0.23343137721531093  0.6183058561291546  1.0000
data_image140
_chemical_formula_structural       H16S8
_chemical_formula_sum              "H16 S8"
_cell_length_a       8.83753075774048
_cell_length_b       8.83753075774048
_cell_length_c       8.83753075774048
_cell_angle_alpha    118.690318510586
_cell_angle_beta     118.69031851058598
_cell_angle_gamma    92.28380992055807

_space_group_name_H-M_alt    "P 1"
_space_group_IT_number       1

loop_
  _space_group_symop_operation_xyz
  'x, y, z'

loop_
  _atom_site_type_symbol
  _atom_site_label
  _atom_site_symmetry_multiplicity
  _atom_site_fract_x
  _atom_site_fract_y
  _atom_site_fract_z
  _atom_site_occupancy
  H   H1        1.0  0.9062991339305881  0.7135248200502247  0.6826562630012631  1.0000
  H   H2        1.0  0.9996399059891701  0.2941383346915245  0.862739535048604  1.0000
  H   H3        1.0  0.8325179456733167  0.7084005130454898  0.4447510743048042  1.0000
  H   H4        1.0  0.8091535898856819  0.1172360242344439  0.6092010316206142  1.0000
  H   H5        1.0  0.6792210938874632  0.7089928677305579  0.2521268152631819  1.0000
  H   H6        1.0  0.22054359689354897  0.8264181427657604  0.5407357290387154  1.0000
  H   H7        1.0  0.5957750738598406  0.7204541635001078  0.06360084272455424  1.0000
  H   H8        1.0  0.31161466566845775  0.21128439926542342  0.03511592175345868  1.0000
  H   H9        1.0  0.5178749216720462  0.22537486487999558  0.5364835876971483  1.0000
  H   H10       1.0  0.11981424398254603  0.36571791488677263  0.41459228575695306  1.0000
  H   H11       1.0  0.6626171767711639  0.3561158759985119  0.9188485743943602  1.0000
  H   H12       1.0  0.41764310747385025  0.13295697327703238  0.16851310059428215  1.0000
  H   H13       1.0  0.890648792963475  0.8698285291902721  0.3120749560184777  1.0000
  H   H14       1.0  0.08426932105794549  0.9020160660147667  0.7166163101792336  1.0000
  H   H15       1.0  0.9263593889772892  0.8511930946260691  0.149048063904047  1.0000
  H   H16       1.0  0.21426477329805493  0.8924325432162732  0.2647137155290693  1.0000
  S   S1        1.0  0.6081277527846396  0.11136158951558173  0.9023113752482459  1.0000
  S   S2        1.0  0.5483707040548325  0.7924973759800196  0.41534959338605404  1.0000
  S   S3        1.0  0.8933686027303338  0.9906247388571501  0.9732651822268963  1.0000
  S   S4        1.0  0.9973139757057652  0.7521375089418143  0.4677273547858931  1.0000
  S   S5        1.0  0.7875433426816016  0.4388826508074999  0.16491739824414253  1.0000
  S   S6        1.0  0.37036898732185364  0.9614027813076973  0.04719523899257183  1.0000
  S   S7        1.0  0.08322120411321521  0.9080121964216232  0.5536833866499364  1.0000
  S   S8        1.0  0.676990807056427  0.9591227257624269  0.17348942789249122  1.0000
data_image141
_chemical_formula_structural       H16S8
_chemical_formula_sum              "H16 S8"
_cell_length_a       8.83753075774048
_cell_length_b       8.83753075774048
_cell_length_c       8.83753075774048
_cell_angle_alpha    118.690318510586
_cell_angle_beta     118.69031851058598
_cell_angle_gamma    92.28380992055807

_space_group_name_H-M_alt    "P 1"
_space_group_IT_number       1

loop_
  _space_group_symop_operation_xyz
  'x, y, z'

loop_
  _atom_site_type_symbol
  _atom_site_label
  _atom_site_symmetry_multiplicity
  _atom_site_fract_x
  _atom_site_fract_y
  _atom_site_fract_z
  _atom_site_occupancy
  H   H1        1.0  0.532266961003188  0.13762835506349802  0.26005641045048833  1.0000
  H   H2        1.0  0.17002015188336372  0.8707517571747303  0.13741309195756912  1.0000
  H   H3        1.0  0.3858523750677705  0.31178509443998337  0.7099278739187866  1.0000
  H   H4        1.0  0.23441690113395452  0.15158473188057542  0.12114075000863522  1.0000
  H   H5        1.0  0.5075506099965423  0.37622135085985065  0.8259459076216444  1.0000
  H   H6        1.0  0.16086320020258427  0.5396047066897154  0.309229489415884  1.0000
  H   H7        1.0  0.3798218888696283  0.9615225835004821  0.9595280891517177  1.0000
  H   H8        1.0  0.3910933998413384  0.8776671127416193  0.6696811928413808  1.0000
  H   H9        1.0  0.8719667117111385  0.7460614815354347  0.358978807926178  1.0000
  H   H10       1.0  0.9109150108415633  0.6210146604571491  0.90450874454109  1.0000
  H   H11       1.0  0.09587784949690104  0.2689873003400862  0.819850186817348  1.0000
  H   H12       1.0  0.08725746814161539  0.3860482331365347  0.16603798419237137  1.0000
  H   H13       1.0  0.4279688377864659  0.8826451092027128  0.99910528131295  1.0000
  H   H14       1.0  0.13901461591012776  0.8001773403957486  0.22580737620592117  1.0000
  H   H15       1.0  0.44771755672991276  0.7621467467397451  0.6432851441204548  1.0000
  H   H16       1.0  0.9193210178054869  0.6007275464944541  0.2674010149203241  1.0000
  S   S1        1.0  0.4550804030150175  0.22867554984986782  0.449558807304129  1.0000
  S   S2        1.0  0.4477393291890621  0.6930165197700262  0.3475034013390541  1.0000
  S   S3        1.0  0.9088467303663492  0.03876491077244282  0.2506921589374542  1.0000
  S   S4        1.0  0.6818431842839345  0.5690597837092355  0.6908736382029019  1.0000
  S   S5        1.0  0.2320688443724066  0.9997607888653874  0.8336778059601784  1.0000
  S   S6        1.0  0.1737206168472767  0.3744228482246399  0.2749497462064028  1.0000
  S   S7        1.0  0.5536138718016446  0.8650007792748511  0.4488156670704484  1.0000
  S   S8        1.0  0.12169166165404022  0.5495308807585388  0.4292717664502561  1.0000
data_image142
_chemical_formula_structural       H16S8
_chemical_formula_sum              "H16 S8"
_cell_length_a       8.83753075774048
_cell_length_b       8.83753075774048
_cell_length_c       8.83753075774048
_cell_angle_alpha    118.690318510586
_cell_angle_beta     118.69031851058598
_cell_angle_gamma    92.28380992055807

_space_group_name_H-M_alt    "P 1"
_space_group_IT_number       1

loop_
  _space_group_symop_operation_xyz
  'x, y, z'

loop_
  _atom_site_type_symbol
  _atom_site_label
  _atom_site_symmetry_multiplicity
  _atom_site_fract_x
  _atom_site_fract_y
  _atom_site_fract_z
  _atom_site_occupancy
  H   H1        1.0  0.5260583190247416  0.4158073340076953  0.7231988180428743  1.0000
  H   H2        1.0  0.33357740193605423  0.4513806514441967  0.16244921647012234  1.0000
  H   H3        1.0  0.5066738715395331  0.8868900528177619  0.5236351309577003  1.0000
  H   H4        1.0  0.832858950830996  0.6537030288018286  0.779262708092574  1.0000
  H   H5        1.0  0.218839276349172  0.7725519174709916  0.2259272251976654  1.0000
  H   H6        1.0  0.5112764295190573  0.41521100886166096  0.9149323888123035  1.0000
  H   H7        1.0  0.3852926604449749  0.21337804791983217  0.6431813299423084  1.0000
  H   H8        1.0  0.9819005494937301  0.7167908430565149  0.04065530723892152  1.0000
  H   H9        1.0  0.13530880631878972  0.5701270252466202  0.10980373807251453  1.0000
  H   H10       1.0  0.7928974296664819  0.2797274140175432  0.6812863927334547  1.0000
  H   H11       1.0  0.24285309575498104  0.6039700184483081  0.8989661252126098  1.0000
  H   H12       1.0  0.14600334782153368  0.02226091269403696  0.5329297613352537  1.0000
  H   H13       1.0  0.9144185660406947  0.026437124237418175  0.20990501483902335  1.0000
  H   H14       1.0  0.9422081967350096  0.6879359036684036  0.23981427028775215  1.0000
  H   H15       1.0  0.021353336051106453  0.3282522223889828  0.3729671072214842  1.0000
  H   H16       1.0  0.8320698444731534  0.36114775482565165  0.9685096507892013  1.0000
  S   S1        1.0  0.5638266070745885  0.7994432564591989  0.9567601634189487  1.0000
  S   S2        1.0  0.034635692834854126  0.6700447257608175  0.9621043261140585  1.0000
  S   S3        1.0  0.5459498092532158  0.6696199681609869  0.5106123089790344  1.0000
  S   S4        1.0  0.1248258495470509  0.21278239274397492  0.76808848278597  1.0000
  S   S5        1.0  0.6019870998570696  0.06719587719999254  0.3871073671616614  1.0000
  S   S6        1.0  0.7688655257225037  0.7475605681538582  0.5059404019266367  1.0000
  S   S7        1.0  0.9471776681020856  0.4908200390636921  0.09082347713410854  1.0000
  S   S8        1.0  0.23278512666001916  0.3976508767809719  0.2136943822260946  1.0000
data_image143
_chemical_formula_structural       H16S8
_chemical_formula_sum              "H16 S8"
_cell_length_a       8.83753075774048
_cell_length_b       8.83753075774048
_cell_length_c       8.83753075774048
_cell_angle_alpha    118.690318510586
_cell_angle_beta     118.69031851058598
_cell_angle_gamma    92.28380992055807

_space_group_name_H-M_alt    "P 1"
_space_group_IT_number       1

loop_
  _space_group_symop_operation_xyz
  'x, y, z'

loop_
  _atom_site_type_symbol
  _atom_site_label
  _atom_site_symmetry_multiplicity
  _atom_site_fract_x
  _atom_site_fract_y
  _atom_site_fract_z
  _atom_site_occupancy
  H   H1        1.0  0.9337454094202258  0.5009363517165184  0.9352058619260788  1.0000
  H   H2        1.0  0.73774129524827  0.728600263595581  0.6487346906214952  1.0000
  H   H3        1.0  0.8925660303793848  0.09040431678295135  0.000894286553375423  1.0000
  H   H4        1.0  0.49396854010410607  0.42609700839966536  0.6786063138861209  1.0000
  H   H5        1.0  0.38971097208559513  0.11875717365182936  0.9976950496784411  1.0000
  H   H6        1.0  0.6365897301584482  0.8131466116756201  0.19447791948914528  1.0000
  H   H7        1.0  0.6048992001451552  0.12652112683281302  0.45587560813874006  1.0000
  H   H8        1.0  0.8297910704277456  0.40280404523946345  0.813439731602557  1.0000
  H   H9        1.0  0.9387491829693317  0.2821038500405848  0.5225288402289152  1.0000
  H   H10       1.0  0.5417171233566478  0.5991585981100798  0.045320246485061944  1.0000
  H   H11       1.0  0.622764908708632  0.7731119045056403  0.40437926282174885  1.0000
  H   H12       1.0  0.8867889773100615  0.18885080981999636  0.445173860527575  1.0000
  H   H13       1.0  0.8778982805088162  0.9309836407192051  0.33051753940526396  1.0000
  H   H14       1.0  0.004684609826654196  0.346623913384974  0.6899250596761703  1.0000
  H   H15       1.0  0.19525088369846344  0.9783044829964638  0.9306822568178177  1.0000
  H   H16       1.0  0.9183348640799522  0.454595064278692  0.6926984288729727  1.0000
  S   S1        1.0  0.03215483855456114  0.7786514535546303  0.14706583321094513  1.0000
  S   S2        1.0  0.6260694786906242  0.4919053502380848  0.8754036892205477  1.0000
  S   S3        1.0  0.2095875171944499  0.8464732188731432  0.7036983110010624  1.0000
  S   S4        1.0  0.7409535495680757  0.0009833460208028555  0.7426297139027156  1.0000
  S   S5        1.0  0.6602424468146637  0.7467430429533124  0.26122512482106686  1.0000
  S   S6        1.0  0.5138070099055767  0.9248539619147778  0.9623059425503016  1.0000
  S   S7        1.0  0.7641948242671788  0.903797545004636  0.6361159281805158  1.0000
  S   S8        1.0  0.10072223911993206  0.47072016657330096  0.8913400217425078  1.0000
data_image144
_chemical_formula_structural       H16S8
_chemical_formula_sum              "H16 S8"
_cell_length_a       8.83753075774048
_cell_length_b       8.83753075774048
_cell_length_c       8.83753075774048
_cell_angle_alpha    118.690318510586
_cell_angle_beta     118.69031851058598
_cell_angle_gamma    92.28380992055807

_space_group_name_H-M_alt    "P 1"
_space_group_IT_number       1

loop_
  _space_group_symop_operation_xyz
  'x, y, z'

loop_
  _atom_site_type_symbol
  _atom_site_label
  _atom_site_symmetry_multiplicity
  _atom_site_fract_x
  _atom_site_fract_y
  _atom_site_fract_z
  _atom_site_occupancy
  H   H1        1.0  0.6630768345494289  0.8423732642550021  0.6004502137657255  1.0000
  H   H2        1.0  0.7744777165353298  0.2732541374862194  0.9005193766206503  1.0000
  H   H3        1.0  0.19422265561297536  0.23903313092887402  0.7733638442587107  1.0000
  H   H4        1.0  0.8937446842901409  0.5508241774514318  0.7372812098474242  1.0000
  H   H5        1.0  0.8334040730260313  0.976095337420702  0.8786511507933028  1.0000
  H   H6        1.0  0.6713475007563829  0.5213583558797836  0.3005215562880039  1.0000
  H   H7        1.0  0.10332514683250338  0.3791185130830854  0.8755447439616546  1.0000
  H   H8        1.0  0.12860300997272134  0.7193834979552776  0.6188570183003321  1.0000
  H   H9        1.0  0.4397577540948987  0.8026415016502142  0.7651932910084724  1.0000
  H   H10       1.0  0.33093630732037127  0.1622529267333448  0.579112926920061  1.0000
  H   H11       1.0  0.07271665055304766  0.8142754139844328  0.6821527772117406  1.0000
  H   H12       1.0  0.20749021600931883  0.7030617380514741  0.9432879416272044  1.0000
  H   H13       1.0  0.39284304343163967  0.231916606426239  0.3069430610630661  1.0000
  H   H14       1.0  0.3561522434465587  0.14954922627657652  0.6170646212995052  1.0000
  H   H15       1.0  0.47244822047650814  0.843388831242919  0.39380630664527416  1.0000
  H   H16       1.0  0.020319577772170305  0.3375081850681454  0.5077254958450794  1.0000
  S   S1        1.0  0.41894550155848265  0.8823388849850744  0.17076337418984622  1.0000
  S   S2        1.0  0.8697739839553833  0.5169799290597439  0.9589003622531891  1.0000
  S   S3        1.0  0.36557637248188257  0.03983364999294281  0.52657325938344  1.0000
  S   S4        1.0  0.9609209336922504  0.7206147675169632  0.27570121991448104  1.0000
  S   S5        1.0  0.34243954974226654  0.9798767892643809  0.03585023758932948  1.0000
  S   S6        1.0  0.7646826207637787  0.3117974866181612  0.1642489731311798  1.0000
  S   S7        1.0  0.957478538621217  0.10930904932320118  0.12142516020685434  1.0000
  S   S8        1.0  0.10363388317637146  0.07013163599185646  0.4857357020955533  1.0000
data_image145
_chemical_formula_structural       H16S8
_chemical_formula_sum              "H16 S8"
_cell_length_a       8.83753075774048
_cell_length_b       8.83753075774048
_cell_length_c       8.83753075774048
_cell_angle_alpha    118.690318510586
_cell_angle_beta     118.69031851058598
_cell_angle_gamma    92.28380992055807

_space_group_name_H-M_alt    "P 1"
_space_group_IT_number       1

loop_
  _space_group_symop_operation_xyz
  'x, y, z'

loop_
  _atom_site_type_symbol
  _atom_site_label
  _atom_site_symmetry_multiplicity
  _atom_site_fract_x
  _atom_site_fract_y
  _atom_site_fract_z
  _atom_site_occupancy
  H   H1        1.0  0.5064479008869966  0.803701400058344  0.16891108779236674  1.0000
  H   H2        1.0  0.7652506344020367  0.2096400447189808  0.6083726435899734  1.0000
  H   H3        1.0  0.6687320689670742  0.6505672093480825  0.12799101998098195  1.0000
  H   H4        1.0  0.35125725413672626  0.08603419922292233  0.1557265868759714  1.0000
  H   H5        1.0  0.4978823142591864  0.48340580938383937  0.7799477887456305  1.0000
  H   H6        1.0  0.48998966813087463  0.9877451937645674  0.9162747003138065  1.0000
  H   H7        1.0  0.2220508431782946  0.5098683985415846  0.13334140868391842  1.0000
  H   H8        1.0  0.8191005354747176  0.4718712375033647  0.9202018878422678  1.0000
  H   H9        1.0  0.7061490118503571  0.22542713722214103  0.46429102309048176  1.0000
  H   H10       1.0  0.019720101379789412  0.7666480904445052  0.9050392677836498  1.0000
  H   H11       1.0  0.7425815686583519  0.30875068600289524  0.6267106637824327  1.0000
  H   H12       1.0  0.46671971678733826  0.05420011468231678  0.05733094550669193  1.0000
  H   H13       1.0  0.4562494773417711  0.20900796866044402  0.48661414883099496  1.0000
  H   H14       1.0  0.16226161387749016  0.9898082902655005  0.40978236496448517  1.0000
  H   H15       1.0  0.5633896086364985  0.6094781812280416  0.5775328911840916  1.0000
  H   H16       1.0  0.8764056686777622  0.7191362590529025  0.5189473535865545  1.0000
  S   S1        1.0  0.2892935404088348  0.15400412946473807  0.5845238623442128  1.0000
  S   S2        1.0  0.24504107609391212  0.8380544986575842  0.9307114519178867  1.0000
  S   S3        1.0  0.3170415796339512  0.037038654088974  0.04962659999728203  1.0000
  S   S4        1.0  0.953780839801766  0.7063385291257873  0.3406972431112081  1.0000
  S   S5        1.0  0.39904335129540414  0.47883187676779926  0.20268794195726514  1.0000
  S   S6        1.0  0.1835901103913784  0.9772481713443995  0.7088783793151379  1.0000
  S   S7        1.0  0.3722451659850776  0.9572667274624109  0.4260457344353199  1.0000
  S   S8        1.0  0.20891051669605076  0.7427764069288969  0.1847495010588318  1.0000
data_image146
_chemical_formula_structural       H16S8
_chemical_formula_sum              "H16 S8"
_cell_length_a       8.83753075774048
_cell_length_b       8.83753075774048
_cell_length_c       8.83753075774048
_cell_angle_alpha    118.690318510586
_cell_angle_beta     118.69031851058598
_cell_angle_gamma    92.28380992055807

_space_group_name_H-M_alt    "P 1"
_space_group_IT_number       1

loop_
  _space_group_symop_operation_xyz
  'x, y, z'

loop_
  _atom_site_type_symbol
  _atom_site_label
  _atom_site_symmetry_multiplicity
  _atom_site_fract_x
  _atom_site_fract_y
  _atom_site_fract_z
  _atom_site_occupancy
  H   H1        1.0  0.6818189874175005  0.8399380196351558  0.3345432614441961  1.0000
  H   H2        1.0  0.3912726230919361  0.40404076129198074  0.9467627834528685  1.0000
  H   H3        1.0  0.8902087002061307  0.03069736249744892  0.3415360380895436  1.0000
  H   H4        1.0  0.019149834057316184  0.44550762767903507  0.7692751495051198  1.0000
  H   H5        1.0  0.7007694491185248  0.7467222637496889  0.2658747404348105  1.0000
  H   H6        1.0  0.8481857515871525  0.8511903900653124  0.6036787405610085  1.0000
  H   H7        1.0  0.23467104963492602  0.7558693313039839  0.9854817497543991  1.0000
  H   H8        1.0  0.5661305845715106  0.41924924799241126  0.3297590158181265  1.0000
  H   H9        1.0  0.0161442831158638  0.8346549612469971  0.6402977574616671  1.0000
  H   H10       1.0  0.8984834693837911  0.18453065631911159  0.198012636959902  1.0000
  H   H11       1.0  0.29931947216391563  0.3111153361387551  0.04544868925586343  1.0000
  H   H12       1.0  0.6282296110875905  0.7847811561077833  0.6653365939855576  1.0000
  H   H13       1.0  0.2414810392074287  0.10161530040204525  0.9536079133395106  1.0000
  H   H14       1.0  0.27531700278632343  0.3194808289408684  0.868419174104929  1.0000
  H   H15       1.0  0.27652160078287125  0.16685863956809044  0.6995216272771358  1.0000
  H   H16       1.0  0.5755261878948659  0.46145767718553543  0.6259656513575464  1.0000
  S   S1        1.0  0.560232303570956  0.9880643310025334  0.7550838618772104  1.0000
  S   S2        1.0  0.03735768422484398  0.0947193056344986  0.4414773043245077  1.0000
  S   S3        1.0  0.17113230749964714  0.010051175951957703  0.751338317990303  1.0000
  S   S4        1.0  0.6236958506051451  0.4049809700809419  0.26298451522598043  1.0000
  S   S5        1.0  0.007920294534415007  0.44420200027525425  0.7414411902427673  1.0000
  S   S6        1.0  0.47703656926751137  0.4340279661118984  0.0810615811496973  1.0000
  S   S7        1.0  0.37662384286522865  0.31199837289750576  0.31076019583269954  1.0000
  S   S8        1.0  0.5428507686592638  0.27212203573435545  0.8307049076538533  1.0000
data_image147
_chemical_formula_structural       H16S8
_chemical_formula_sum              "H16 S8"
_cell_length_a       8.83753075774048
_cell_length_b       8.83753075774048
_cell_length_c       8.83753075774048
_cell_angle_alpha    118.690318510586
_cell_angle_beta     118.69031851058598
_cell_angle_gamma    92.28380992055807

_space_group_name_H-M_alt    "P 1"
_space_group_IT_number       1

loop_
  _space_group_symop_operation_xyz
  'x, y, z'

loop_
  _atom_site_type_symbol
  _atom_site_label
  _atom_site_symmetry_multiplicity
  _atom_site_fract_x
  _atom_site_fract_y
  _atom_site_fract_z
  _atom_site_occupancy
  H   H1        1.0  0.5507254065159941  0.4929636772722006  0.6745315978769213  1.0000
  H   H2        1.0  0.26934871822595596  0.4960194267332554  0.41166954301297665  1.0000
  H   H3        1.0  0.8308862578123808  0.4245415488258004  0.7165899132378399  1.0000
  H   H4        1.0  0.0720102908089757  0.020088816760107875  0.9745038456749171  1.0000
  H   H5        1.0  0.41498554055579007  0.030843474436551332  0.6421586330980062  1.0000
  H   H6        1.0  0.18632854335010052  0.7193746715784073  0.16583724692463875  1.0000
  H   H7        1.0  0.7141838681418449  0.36840602080337703  0.7202840794343501  1.0000
  H   H8        1.0  0.6297168934252113  0.6353466004366055  0.6272844296181574  1.0000
  H   H9        1.0  0.9664599485695362  0.26099170418456197  0.9224711786955595  1.0000
  H   H10       1.0  0.9925422759260982  0.8686754768714309  0.11863605929465848  1.0000
  H   H11       1.0  0.19138462096452713  0.7479890894610435  0.922641946002841  1.0000
  H   H12       1.0  0.24119288148358464  0.2833014903590083  0.031102453358471394  1.0000
  H   H13       1.0  0.6662163161672652  0.885457603726536  0.7686836523935199  1.0000
  H   H14       1.0  0.34405105537734926  0.8237212253734469  0.8373114727437496  1.0000
  H   H15       1.0  0.6361588425934315  0.9615787733346224  0.9108484666794538  1.0000
  H   H16       1.0  0.16439067292958498  0.7397573140915483  0.2932049105875194  1.0000
  S   S1        1.0  0.8783823053818196  0.8437944122124463  0.4338730805320665  1.0000
  S   S2        1.0  0.5737632140517235  0.5170314703136683  0.08505583368241787  1.0000
  S   S3        1.0  0.4930833587422967  0.5226820651441813  0.8895987085998058  1.0000
  S   S4        1.0  0.7441213434212841  0.22507281508296728  0.16101347631774843  1.0000
  S   S5        1.0  0.864130929345265  0.2649066236335784  0.3862504377029836  1.0000
  S   S6        1.0  0.2805105820298195  0.36982420831918716  0.40770197845995426  1.0000
  S   S7        1.0  0.7521447124890983  0.899721410125494  0.37925060326233506  1.0000
  S   S8        1.0  0.9199375081807375  0.29350386979058385  0.5366704270709306  1.0000
data_image148
_chemical_formula_structural       H16S8
_chemical_formula_sum              "H16 S8"
_cell_length_a       8.83753075774048
_cell_length_b       8.83753075774048
_cell_length_c       8.83753075774048
_cell_angle_alpha    118.690318510586
_cell_angle_beta     118.69031851058598
_cell_angle_gamma    92.28380992055807

_space_group_name_H-M_alt    "P 1"
_space_group_IT_number       1

loop_
  _space_group_symop_operation_xyz
  'x, y, z'

loop_
  _atom_site_type_symbol
  _atom_site_label
  _atom_site_symmetry_multiplicity
  _atom_site_fract_x
  _atom_site_fract_y
  _atom_site_fract_z
  _atom_site_occupancy
  H   H1        1.0  0.07502151229709852  0.4843235418666154  0.4371591783128679  1.0000
  H   H2        1.0  0.6321897320449352  0.9863818027079105  0.4921114854514599  1.0000
  H   H3        1.0  0.8266961462795734  0.1826331652700901  0.8778244067216292  1.0000
  H   H4        1.0  0.022564818616956472  0.9026519961189479  0.7395300129428506  1.0000
  H   H5        1.0  0.010440916288644075  0.5647872919216752  0.1863722454290837  1.0000
  H   H6        1.0  0.6831026934087276  0.919186083599925  0.9830680526793003  1.0000
  H   H7        1.0  0.6957764965482056  0.24406158993951976  0.41564453148748726  1.0000
  H   H8        1.0  0.6962959405500442  0.7478263741359115  0.5453318458748981  1.0000
  H   H9        1.0  0.9530557664111257  0.8789286916144192  0.7728560175746679  1.0000
  H   H10       1.0  0.5897888299077749  0.17091348255053163  0.0712416387614212  1.0000
  H   H11       1.0  0.9763963278383017  0.7413022480905056  0.19869496347382665  1.0000
  H   H12       1.0  0.75225521158427  0.3482634602114558  0.056417347863316536  1.0000
  H   H13       1.0  0.12425440037623048  0.45621961122378707  0.10984025720972568  1.0000
  H   H14       1.0  0.9063721133861691  0.2516367817297578  0.18366822972893715  1.0000
  H   H15       1.0  0.33155629597604275  0.030594998970627785  0.5274381209164858  1.0000
  H   H16       1.0  0.2949824035167694  0.15272815083153546  0.5335826750379056  1.0000
  S   S1        1.0  0.5301046033855528  0.21962230070494115  0.24741860711947083  1.0000
  S   S2        1.0  0.7217789404094219  0.49811517260968685  0.9564168583601713  1.0000
  S   S3        1.0  0.9425539383664727  0.07067048735916615  0.10897718742489815  1.0000
  S   S4        1.0  0.12718366854824126  0.21839353907853365  0.6348990013939328  1.0000
  S   S5        1.0  0.5696157754864544  0.4880986330099404  0.7564245369285345  1.0000
  S   S6        1.0  0.9378112182021141  0.8659483585506678  0.14327955059707165  1.0000
  S   S7        1.0  0.6719027212820947  0.5401754565536976  0.6323829940520227  1.0000
  S   S8        1.0  0.2021278478205204  0.8269347865134478  0.6361155053600669  1.0000
data_image149
_chemical_formula_structural       H16S8
_chemical_formula_sum              "H16 S8"
_cell_length_a       8.83753075774048
_cell_length_b       8.83753075774048
_cell_length_c       8.83753075774048
_cell_angle_alpha    118.690318510586
_cell_angle_beta     118.69031851058598
_cell_angle_gamma    92.28380992055807

_space_group_name_H-M_alt    "P 1"
_space_group_IT_number       1

loop_
  _space_group_symop_operation_xyz
  'x, y, z'

loop_
  _atom_site_type_symbol
  _atom_site_label
  _atom_site_symmetry_multiplicity
  _atom_site_fract_x
  _atom_site_fract_y
  _atom_site_fract_z
  _atom_site_occupancy
  H   H1        1.0  0.8604897687328048  0.8797340700402856  0.7028433301020414  1.0000
  H   H2        1.0  0.4335027076303959  0.479746799916029  0.753592835739255  1.0000
  H   H3        1.0  0.04292870173230767  0.507267284207046  0.21872436709236354  1.0000
  H   H4        1.0  0.506019617896527  0.7228569309227169  0.5048234758432955  1.0000
  H   H5        1.0  0.7846128190867603  0.4193075434304774  0.44502018368802965  1.0000
  H   H6        1.0  0.8372103776782751  0.32377324625849724  0.7584381736814976  1.0000
  H   H7        1.0  0.8802949684904888  0.7931362360250205  0.33945628243964165  1.0000
  H   H8        1.0  0.8922400149749592  0.6566438038134947  0.593624482746236  1.0000
  H   H9        1.0  0.8988045295700431  0.9499493082985282  0.5333151258528233  1.0000
  H   H10       1.0  0.5683621864882298  0.06431197468191385  0.7017148109152913  1.0000
  H   H11       1.0  0.27066393196582794  0.3004556514788419  0.6060001174919307  1.0000
  H   H12       1.0  0.5185918351635337  0.6762662082910538  0.9087424408644438  1.0000
  H   H13       1.0  0.2486993088386953  0.42430298845283687  0.8802441463340074  1.0000
  H   H14       1.0  0.6884566997177899  0.013166812248528004  0.620947826653719  1.0000
  H   H15       1.0  0.429522892460227  0.6127382796257734  0.7720936518162489  1.0000
  H   H16       1.0  0.5818132441490889  0.6052025984972715  0.8983799540437758  1.0000
  S   S1        1.0  0.9651172398589551  0.031864160438999534  0.45218763360753655  1.0000
  S   S2        1.0  0.9165624044835567  0.5102046746760607  0.8245946783572435  1.0000
  S   S3        1.0  0.20225088857114315  0.3693164736032486  0.7628857046365738  1.0000
  S   S4        1.0  0.35683240805519745  0.24577869893983006  0.04673515522154048  1.0000
  S   S5        1.0  0.029529583174735308  0.4890691547188908  0.8023805068805814  1.0000
  S   S6        1.0  0.9863811507821083  0.8884130567312241  0.2261277213692665  1.0000
  S   S7        1.0  0.1688283197581768  0.08736983314156532  0.3703423826955259  1.0000
  S   S8        1.0  0.07669815560802817  0.8560253952164203  0.6591005690861493  1.0000
data_image150
_chemical_formula_structural       H16S8
_chemical_formula_sum              "H16 S8"
_cell_length_a       8.83753075774048
_cell_length_b       8.83753075774048
_cell_length_c       8.83753075774048
_cell_angle_alpha    118.690318510586
_cell_angle_beta     118.69031851058598
_cell_angle_gamma    92.28380992055807

_space_group_name_H-M_alt    "P 1"
_space_group_IT_number       1

loop_
  _space_group_symop_operation_xyz
  'x, y, z'

loop_
  _atom_site_type_symbol
  _atom_site_label
  _atom_site_symmetry_multiplicity
  _atom_site_fract_x
  _atom_site_fract_y
  _atom_site_fract_z
  _atom_site_occupancy
  H   H1        1.0  0.5293853477342054  0.44207434146665037  0.20939032454043627  1.0000
  H   H2        1.0  0.2980344742536545  0.31166378781199455  0.3888803515583277  1.0000
  H   H3        1.0  0.9560958086512983  0.1632087528705597  0.49465709656942636  1.0000
  H   H4        1.0  0.8228121092543006  0.8361830135108903  0.7498749229125679  1.0000
  H   H5        1.0  0.5074534141458571  0.6656203325837851  0.5935084271477535  1.0000
  H   H6        1.0  0.2063230238854885  0.5903803892433643  0.9423985853791237  1.0000
  H   H7        1.0  0.8508669722359627  0.9488752456381917  0.9120483456645161  1.0000
  H   H8        1.0  0.5684097165940329  0.9407378457253799  0.6998321913415566  1.0000
  H   H9        1.0  0.6316058468073606  0.9300103173591197  0.41713350638747215  1.0000
  H   H10       1.0  0.745200039295014  0.631600218359381  0.38716904701141175  1.0000
  H   H11       1.0  0.7269739964976907  0.12013705098070204  0.17735570296645164  1.0000
  H   H12       1.0  0.45606007520109415  0.37651657219976187  0.6026655714958906  1.0000
  H   H13       1.0  0.8780177561566234  0.7312888985034078  0.9547787696355954  1.0000
  H   H14       1.0  0.6423360087210312  0.6846357360482216  0.4004422277212143  1.0000
  H   H15       1.0  0.8451807107776403  0.19999071396887302  0.8750677276402712  1.0000
  H   H16       1.0  0.241487595718354  0.33988234237767756  0.598105086479336  1.0000
  S   S1        1.0  0.05890161311253905  0.9155637603253126  0.8508667615242302  1.0000
  S   S2        1.0  0.9880134090781212  0.050129836425185204  0.3529346287250519  1.0000
  S   S3        1.0  0.1787493759766221  0.29464104399085045  0.9519841894507408  1.0000
  S   S4        1.0  0.21017387072788551  0.24612756818532944  0.045791116426698864  1.0000
  S   S5        1.0  0.7695526862516999  0.6026182794012129  0.6455519245937467  1.0000
  S   S6        1.0  0.12204105779528618  0.07199762389063835  0.4580895733088255  1.0000
  S   S7        1.0  0.31274289498105645  0.6123421522788703  0.9343641037121415  1.0000
  S   S8        1.0  0.6370859006419778  0.8676408887840807  0.28751924470998347  1.0000
data_image151
_chemical_formula_structural       H16S8
_chemical_formula_sum              "H16 S8"
_cell_length_a       8.83753075774048
_cell_length_b       8.83753075774048
_cell_length_c       8.83753075774048
_cell_angle_alpha    118.690318510586
_cell_angle_beta     118.69031851058598
_cell_angle_gamma    92.28380992055807

_space_group_name_H-M_alt    "P 1"
_space_group_IT_number       1

loop_
  _space_group_symop_operation_xyz
  'x, y, z'

loop_
  _atom_site_type_symbol
  _atom_site_label
  _atom_site_symmetry_multiplicity
  _atom_site_fract_x
  _atom_site_fract_y
  _atom_site_fract_z
  _atom_site_occupancy
  H   H1        1.0  0.476683592016343  0.1168292781803757  0.09807562292553484  1.0000
  H   H2        1.0  0.07939082011580467  0.5956190973520279  0.9857938252389431  1.0000
  H   H3        1.0  0.4303054162301123  0.38348505832254887  0.22598062129691243  1.0000
  H   H4        1.0  0.9917666018009186  0.825454177102074  0.8489575409330428  1.0000
  H   H5        1.0  0.598172421916388  0.7452481435611844  0.9405026729800738  1.0000
  H   H6        1.0  0.6746986005455256  0.46119322441518307  0.3821188844740391  1.0000
  H   H7        1.0  0.7285941133741289  0.5624646041542292  0.2500855440739542  1.0000
  H   H8        1.0  0.4767398698022589  0.09566142712719738  0.35137743107043207  1.0000
  H   H9        1.0  0.3019154602661729  0.1067153881303966  0.22500419430434704  1.0000
  H   H10       1.0  0.4641359408851713  0.3440406695008278  0.997133638462401  1.0000
  H   H11       1.0  0.062227205373346806  0.8940801008138806  0.7793702622875571  1.0000
  H   H12       1.0  0.777680610306561  0.19663711544126272  0.5976717313751578  1.0000
  H   H13       1.0  0.371335546951741  0.14645543694496155  0.531711642513983  1.0000
  H   H14       1.0  0.16958395775873214  0.46909976471215487  0.768346544355154  1.0000
  H   H15       1.0  0.810186954215169  0.7018925063312054  0.946809396147728  1.0000
  H   H16       1.0  0.9124708096496761  0.8444880282040685  0.8445227118209004  1.0000
  S   S1        1.0  0.8994775430765003  0.3208122046198696  0.9266943985130638  1.0000
  S   S2        1.0  0.30614034831523895  0.6694468054920435  0.49701530672609806  1.0000
  S   S3        1.0  0.071442442946136  0.7364559806883335  0.12459338456392288  1.0000
  S   S4        1.0  0.43907350732479244  0.9488462116569281  0.2257436902145855  1.0000
  S   S5        1.0  0.010609605349600315  0.7813452167902142  0.4718846697360277  1.0000
  S   S6        1.0  0.31352388113737106  0.8459707014262676  0.5291242450475693  1.0000
  S   S7        1.0  0.9458378562703729  0.20497359149158  0.533451868686825  1.0000
  S   S8        1.0  0.8509680335409939  0.568498115055263  0.4695550159085542  1.0000
data_image152
_chemical_formula_structural       H16S8
_chemical_formula_sum              "H16 S8"
_cell_length_a       8.83753075774048
_cell_length_b       8.83753075774048
_cell_length_c       8.83753075774048
_cell_angle_alpha    118.690318510586
_cell_angle_beta     118.69031851058598
_cell_angle_gamma    92.28380992055807

_space_group_name_H-M_alt    "P 1"
_space_group_IT_number       1

loop_
  _space_group_symop_operation_xyz
  'x, y, z'

loop_
  _atom_site_type_symbol
  _atom_site_label
  _atom_site_symmetry_multiplicity
  _atom_site_fract_x
  _atom_site_fract_y
  _atom_site_fract_z
  _atom_site_occupancy
  H   H1        1.0  0.7260928695322946  0.7671919171698391  0.7579181990586221  1.0000
  H   H2        1.0  0.23433155566453934  0.6537397243082523  0.338542940095067  1.0000
  H   H3        1.0  0.2483359295874834  0.845786327496171  0.33592544810380787  1.0000
  H   H4        1.0  0.8575101788155735  0.2829899739008397  0.7316185405943543  1.0000
  H   H5        1.0  0.42607597398455255  0.3023051134077832  0.3571071383776143  1.0000
  H   H6        1.0  0.18741517141461372  0.8272467385977507  0.2972496822476387  1.0000
  H   H7        1.0  0.9798364012967795  0.8416606134269387  0.1609063525684178  1.0000
  H   H8        1.0  0.9810164698865265  0.9623662424273789  0.7813806688645855  1.0000
  H   H9        1.0  0.07929672813042998  0.8068304108455777  0.08645888417959213  1.0000
  H   H10       1.0  0.7104707979597151  0.9738475997000933  0.901893647183897  1.0000
  H   H11       1.0  0.49524309393018484  0.1393400221131742  0.3084504259750247  1.0000
  H   H12       1.0  0.7566225742921233  0.0904196435585618  0.558021935634315  1.0000
  H   H13       1.0  0.5263542318716645  0.18538511428050697  0.6574974802788347  1.0000
  H   H14       1.0  0.736656492925249  0.4925993448123336  0.2045535407960415  1.0000
  H   H15       1.0  0.19521065428853035  0.3987301364541054  0.0037736259400844574  1.0000
  H   H16       1.0  0.289172385353595  0.8460475374013186  0.3848568848334253  1.0000
  S   S1        1.0  0.906941742869094  0.6724730136338621  0.054901750991120934  1.0000
  S   S2        1.0  0.7406029738485813  0.09256222657859325  0.7647638283669949  1.0000
  S   S3        1.0  0.8957441197708249  0.5449979100376368  0.23286525160074234  1.0000
  S   S4        1.0  0.2976911424193531  0.607710944255814  0.531637009466067  1.0000
  S   S5        1.0  0.41630540182814  0.06957764574326575  0.03175760107114911  1.0000
  S   S6        1.0  0.28238675370812416  0.39090690575540066  0.41974576748907566  1.0000
  S   S7        1.0  0.9834039723500609  0.551525142043829  0.022843187674880028  1.0000
  S   S8        1.0  0.4570076526142657  0.7815169645473361  0.9200987464282662  1.0000
data_image153
_chemical_formula_structural       H16S8
_chemical_formula_sum              "H16 S8"
_cell_length_a       8.83753075774048
_cell_length_b       8.83753075774048
_cell_length_c       8.83753075774048
_cell_angle_alpha    118.690318510586
_cell_angle_beta     118.69031851058598
_cell_angle_gamma    92.28380992055807

_space_group_name_H-M_alt    "P 1"
_space_group_IT_number       1

loop_
  _space_group_symop_operation_xyz
  'x, y, z'

loop_
  _atom_site_type_symbol
  _atom_site_label
  _atom_site_symmetry_multiplicity
  _atom_site_fract_x
  _atom_site_fract_y
  _atom_site_fract_z
  _atom_site_occupancy
  H   H1        1.0  0.3119050576351583  0.7492467537522316  0.5586672383360565  1.0000
  H   H2        1.0  0.040102649480104446  0.31296346709132195  0.9591010138392448  1.0000
  H   H3        1.0  0.10406944947317243  0.9568736413493752  0.16156379564199597  1.0000
  H   H4        1.0  0.9066981715150177  0.6181244372855872  0.69479108043015  1.0000
  H   H5        1.0  0.3928301230407669  0.9443226122530177  0.8666538047837093  1.0000
  H   H6        1.0  0.7912880219519138  0.9194017462432384  0.46159662678837776  1.0000
  H   H7        1.0  0.09417498455150053  0.15125586465001106  0.7931293091387488  1.0000
  H   H8        1.0  0.7686424346175045  0.8258606438757852  0.10062193032354116  1.0000
  H   H9        1.0  0.5417970223352313  0.09127981727942824  0.07517128996551037  1.0000
  H   H10       1.0  0.19811577443033457  0.6345921270549297  0.13044617502600886  1.0000
  H   H11       1.0  0.26753346994519234  0.016128784278407693  0.9057334852404892  1.0000
  H   H12       1.0  0.442121934145689  0.7023087767884135  0.2904871376231313  1.0000
  H   H13       1.0  0.7604979737661779  0.802090909332037  0.8790238797664642  1.0000
  H   H14       1.0  0.8586240578442812  0.5742981107905507  0.06280479207634926  1.0000
  H   H15       1.0  0.09014762192964554  0.8718766625970602  0.9724066182971001  1.0000
  H   H16       1.0  0.657270017080009  0.524659070186317  0.03455544915050268  1.0000
  S   S1        1.0  0.012232131324708462  0.962677335832268  0.917462061624974  1.0000
  S   S2        1.0  0.014464594423770905  0.4815000295639038  0.9303398858755827  1.0000
  S   S3        1.0  0.11258322931826115  0.31949449330568314  0.9338420145213604  1.0000
  S   S4        1.0  0.5177194914431311  0.02942331717349589  0.2396730287000537  1.0000
  S   S5        1.0  0.04294068552553654  0.7473155767656863  0.8627362810075283  1.0000
  S   S6        1.0  0.47484826669096947  0.09175096824765205  0.55700958147645  1.0000
  S   S7        1.0  0.014808688312768936  0.17331359069794416  0.5418998720124364  1.0000
  S   S8        1.0  0.9077693554572761  0.8253796866629273  0.3542523744981736  1.0000
data_image154
_chemical_formula_structural       H16S8
_chemical_formula_sum              "H16 S8"
_cell_length_a       8.83753075774048
_cell_length_b       8.83753075774048
_cell_length_c       8.83753075774048
_cell_angle_alpha    118.690318510586
_cell_angle_beta     118.69031851058598
_cell_angle_gamma    92.28380992055807

_space_group_name_H-M_alt    "P 1"
_space_group_IT_number       1

loop_
  _space_group_symop_operation_xyz
  'x, y, z'

loop_
  _atom_site_type_symbol
  _atom_site_label
  _atom_site_symmetry_multiplicity
  _atom_site_fract_x
  _atom_site_fract_y
  _atom_site_fract_z
  _atom_site_occupancy
  H   H1        1.0  0.42690928210504353  0.915009286487475  0.030594376381486654  1.0000
  H   H2        1.0  0.0594690665602684  0.8163836225867271  0.3721989654004574  1.0000
  H   H3        1.0  0.4418824468739331  0.9018823010846972  0.21288004296366125  1.0000
  H   H4        1.0  0.7436407483182847  0.3811676277546212  0.8443345590494573  1.0000
  H   H5        1.0  0.4708962592485477  0.9233971453504637  0.4272745697526261  1.0000
  H   H6        1.0  0.8128649108111858  0.7683073747903109  0.8319657072424889  1.0000
  H   H7        1.0  0.684538237110246  0.6647712714038789  0.1842983631649986  1.0000
  H   H8        1.0  0.8648400291567668  0.5638067401014268  0.5088601558236405  1.0000
  H   H9        1.0  0.41061206301674247  0.133628188399598  0.6300563793629408  1.0000
  H   H10       1.0  0.8412419529631734  0.16081134229898453  0.589640548438183  1.0000
  H   H11       1.0  0.9172011772170663  0.16768055595457554  0.6293589011766016  1.0000
  H   H12       1.0  0.47293845750391483  0.5070911319926381  0.7904371600598097  1.0000
  H   H13       1.0  0.5122008481994271  0.5225577657110989  0.1338362261885777  1.0000
  H   H14       1.0  0.5748484992654994  0.5100468220189214  0.15061412379145622  1.0000
  H   H15       1.0  0.09435766749083996  0.5857848785817623  0.30934639647603035  1.0000
  H   H16       1.0  0.5826914329081774  0.9057365660555661  0.5168962627649307  1.0000
  S   S1        1.0  0.7147369894664735  0.9751576043199748  0.9104542722925544  1.0000
  S   S2        1.0  0.572714950889349  0.6662299409508705  0.027153899893164635  1.0000
  S   S3        1.0  0.5869562225416303  0.8080170135945082  0.29032765701413155  1.0000
  S   S4        1.0  0.6718251413549297  0.501190782757476  0.40572919382248074  1.0000
  S   S5        1.0  0.4877424861770123  0.9556908190716058  0.5507510378956795  1.0000
  S   S6        1.0  0.07002560794353485  0.5745681412518024  0.47627588361501694  1.0000
  S   S7        1.0  0.22704872768372297  0.578586105722934  0.36602300545200706  1.0000
  S   S8        1.0  0.9264239908661693  0.2852097109425813  0.3160099626984447  1.0000
data_image155
_chemical_formula_structural       H16S8
_chemical_formula_sum              "H16 S8"
_cell_length_a       8.83753075774048
_cell_length_b       8.83753075774048
_cell_length_c       8.83753075774048
_cell_angle_alpha    118.690318510586
_cell_angle_beta     118.69031851058598
_cell_angle_gamma    92.28380992055807

_space_group_name_H-M_alt    "P 1"
_space_group_IT_number       1

loop_
  _space_group_symop_operation_xyz
  'x, y, z'

loop_
  _atom_site_type_symbol
  _atom_site_label
  _atom_site_symmetry_multiplicity
  _atom_site_fract_x
  _atom_site_fract_y
  _atom_site_fract_z
  _atom_site_occupancy
  H   H1        1.0  0.7119970372878015  0.49384983419440687  0.5921427709981799  1.0000
  H   H2        1.0  0.8358839266002178  0.6122594103217125  0.7867678925395012  1.0000
  H   H3        1.0  0.5640405183658004  0.9761723149567842  0.48788801732007414  1.0000
  H   H4        1.0  0.5365127488039434  0.8942075213417411  0.5226226458325982  1.0000
  H   H5        1.0  0.4345894104699255  0.5309348566224799  0.18060467788018286  1.0000
  H   H6        1.0  0.8695448916405439  0.3000473529100418  0.33267125114798546  1.0000
  H   H7        1.0  0.3098708327161148  0.1633366176392883  0.10575532022630796  1.0000
  H   H8        1.0  0.640167158911936  0.09850839839782566  0.1904162736609578  1.0000
  H   H9        1.0  0.426023016218096  0.09863205289002508  0.9702262785285711  1.0000
  H   H10       1.0  0.8970522553427145  0.5003761588595808  0.05601183349790517  1.0000
  H   H11       1.0  0.2527554677799344  0.3006277307868004  0.8605508997570723  1.0000
  H   H12       1.0  0.7204107046127319  0.0032103750854730606  0.13472328335046768  1.0000
  H   H13       1.0  0.41088829142972827  0.3937744344584644  0.7446362116606906  1.0000
  H   H14       1.0  0.4084553283173591  0.10731710586696863  0.3981272615492344  1.0000
  H   H15       1.0  0.2871201802045107  0.6085554361343384  0.9890845939517021  1.0000
  H   H16       1.0  0.9027262735180557  0.3222902331035584  0.9548535761423409  1.0000
  S   S1        1.0  0.8769371514208615  0.7594725769013166  0.26069741614628583  1.0000
  S   S2        1.0  0.728604931384325  0.4652980025857687  0.3794531784951687  1.0000
  S   S3        1.0  0.21358524169772863  0.4536114502698183  0.3908168524503708  1.0000
  S   S4        1.0  0.704688479017932  0.39142026333138347  0.36651118739973754  1.0000
  S   S5        1.0  0.8502506327349693  0.030668081948533654  0.39205719716846943  1.0000
  S   S6        1.0  0.7988565862178802  0.23490898497402668  0.3650754913687706  1.0000
  S   S7        1.0  0.5652556167915463  0.6816970398649573  0.03620672319084406  1.0000
  S   S8        1.0  0.01506967912428081  0.24458375945687294  0.1667891328688711  1.0000
data_image156
_chemical_formula_structural       H16S8
_chemical_formula_sum              "H16 S8"
_cell_length_a       8.83753075774048
_cell_length_b       8.83753075774048
_cell_length_c       8.83753075774048
_cell_angle_alpha    118.690318510586
_cell_angle_beta     118.69031851058598
_cell_angle_gamma    92.28380992055807

_space_group_name_H-M_alt    "P 1"
_space_group_IT_number       1

loop_
  _space_group_symop_operation_xyz
  'x, y, z'

loop_
  _atom_site_type_symbol
  _atom_site_label
  _atom_site_symmetry_multiplicity
  _atom_site_fract_x
  _atom_site_fract_y
  _atom_site_fract_z
  _atom_site_occupancy
  H   H1        1.0  0.2333319418830797  0.6726643070578575  0.0311953816562891  1.0000
  H   H2        1.0  0.018818803131580353  0.937992487102747  0.13280754536390305  1.0000
  H   H3        1.0  0.5734262145124376  0.9288971181958914  0.6296123043866828  1.0000
  H   H4        1.0  0.3618103703483939  0.24248416617047042  0.7490409454330802  1.0000
  H   H5        1.0  0.5706073659384856  0.825803401414305  0.18442078225780278  1.0000
  H   H6        1.0  0.040894271805882454  0.629289036616683  0.49401214718818665  1.0000
  H   H7        1.0  0.9439916490809992  0.003535557771101594  0.2712891307892278  1.0000
  H   H8        1.0  0.013714831206016243  0.46570400591008365  0.0705903829075396  1.0000
  H   H9        1.0  0.789164355956018  0.9465679926215671  0.5502895712852478  1.0000
  H   H10       1.0  0.8365244414890185  0.6132136601954699  0.33973533791140653  1.0000
  H   H11       1.0  0.15389120392501354  0.8666206793859601  0.5921189361251891  1.0000
  H   H12       1.0  0.4727085595950484  0.27986046113073826  0.38233546260744333  1.0000
  H   H13       1.0  0.5622061477042735  0.6498701903037727  0.5738481521839276  1.0000
  H   H14       1.0  0.5169260825496167  0.6583254048600793  0.8914279006421566  1.0000
  H   H15       1.0  0.07927751541137695  0.6846320163458586  0.4062185436487198  1.0000
  H   H16       1.0  0.3581668525002897  0.4543737955391407  0.9979101135395467  1.0000
  S   S1        1.0  0.1978277238085866  0.873710046056658  0.26851937535684556  1.0000
  S   S2        1.0  0.9997923970222473  0.37375258281826973  0.9927429296076298  1.0000
  S   S3        1.0  0.7371656987816095  0.8871724456548691  0.8685139864683151  1.0000
  S   S4        1.0  0.5617271137889475  0.012277165660634637  0.17700546409469098  1.0000
  S   S5        1.0  0.0755474145989865  0.5080783001612872  0.6944621177390218  1.0000
  S   S6        1.0  0.28606176376342773  0.4122802261263132  0.8710872959345579  1.0000
  S   S7        1.0  0.6266620820388198  0.6048316396772861  0.02215650212019682  1.0000
  S   S8        1.0  0.529156657634303  0.34397640195675194  0.6003685840405524  1.0000
data_image157
_chemical_formula_structural       H16S8
_chemical_formula_sum              "H16 S8"
_cell_length_a       8.83753075774048
_cell_length_b       8.83753075774048
_cell_length_c       8.83753075774048
_cell_angle_alpha    118.690318510586
_cell_angle_beta     118.69031851058598
_cell_angle_gamma    92.28380992055807

_space_group_name_H-M_alt    "P 1"
_space_group_IT_number       1

loop_
  _space_group_symop_operation_xyz
  'x, y, z'

loop_
  _atom_site_type_symbol
  _atom_site_label
  _atom_site_symmetry_multiplicity
  _atom_site_fract_x
  _atom_site_fract_y
  _atom_site_fract_z
  _atom_site_occupancy
  H   H1        1.0  0.545668265549466  0.9572110422886908  0.12626983784139156  1.0000
  H   H2        1.0  0.8141426518559456  0.2585589326918125  0.5711386017501354  1.0000
  H   H3        1.0  0.5110401781275868  0.3891402604058385  0.07943668821826577  1.0000
  H   H4        1.0  0.6737047238275409  0.6031592763029039  0.39068100322037935  1.0000
  H   H5        1.0  0.963662847323576  0.4097896843450144  0.9025063270237297  1.0000
  H   H6        1.0  0.18124995008111  0.7155868485569954  0.7790814265608788  1.0000
  H   H7        1.0  0.10852361959405243  0.8050570334307849  0.5662391255027615  1.0000
  H   H8        1.0  0.9473989539546892  0.7963313073851168  0.7180413737660274  1.0000
  H   H9        1.0  0.4528234414756298  0.43205999373458326  0.4350527338683605  1.0000
  H   H10       1.0  0.06539208168396726  0.9620965793728828  0.985094257252058  1.0000
  H   H11       1.0  0.33000769279897213  0.2362936153076589  0.3147706538438797  1.0000
  H   H12       1.0  0.45194101613014936  0.18282172922044992  0.44675242714583874  1.0000
  H   H13       1.0  0.5228390996344388  0.5718409132678062  0.12790236045839265  1.0000
  H   H14       1.0  0.34045905200764537  0.8773967465385795  0.06356997787952423  1.0000
  H   H15       1.0  0.9321538638323545  0.9124496281147003  0.5534750688821077  1.0000
  H   H16       1.0  0.3013357538729906  0.7189762827474624  0.3558653190266341  1.0000
  S   S1        1.0  0.741110818227753  0.7776274047791958  0.35801819048356265  1.0000
  S   S2        1.0  0.05230366438627243  0.24133866094052792  0.7649172581732273  1.0000
  S   S3        1.0  0.04726872406899929  0.6779164839535952  0.7508244775235653  1.0000
  S   S4        1.0  0.8482360987109132  0.1844517164863646  0.3735479666502215  1.0000
  S   S5        1.0  0.5753288604319096  0.2764782467857003  0.07123636733740568  1.0000
  S   S6        1.0  0.5584238171577454  0.002934711053967476  0.9886966086924076  1.0000
  S   S7        1.0  0.6865058583207428  0.8604762936010957  0.6879676729440689  1.0000
  S   S8        1.0  0.5855370962526649  0.05652529397048056  0.5897122425958514  1.0000
data_image158
_chemical_formula_structural       H16S8
_chemical_formula_sum              "H16 S8"
_cell_length_a       8.83753075774048
_cell_length_b       8.83753075774048
_cell_length_c       8.83753075774048
_cell_angle_alpha    118.690318510586
_cell_angle_beta     118.69031851058598
_cell_angle_gamma    92.28380992055807

_space_group_name_H-M_alt    "P 1"
_space_group_IT_number       1

loop_
  _space_group_symop_operation_xyz
  'x, y, z'

loop_
  _atom_site_type_symbol
  _atom_site_label
  _atom_site_symmetry_multiplicity
  _atom_site_fract_x
  _atom_site_fract_y
  _atom_site_fract_z
  _atom_site_occupancy
  H   H1        1.0  0.1830350651871413  0.8376060640439391  0.08394320961087942  1.0000
  H   H2        1.0  0.1787860281765461  0.5506932362914085  0.3925852123647928  1.0000
  H   H3        1.0  0.16076836735010147  0.21532989758998156  0.6767049325862899  1.0000
  H   H4        1.0  0.41776643553748727  0.035422568675130606  0.06474321288987994  1.0000
  H   H5        1.0  0.7228261237469269  0.6254096160409972  0.14681306551210582  1.0000
  H   H6        1.0  0.803270386531949  0.265820337459445  0.000799279659986496  1.0000
  H   H7        1.0  0.3484702240675688  0.1794728464446962  0.4974600271671079  1.0000
  H   H8        1.0  0.25765274185687304  0.2638110448606312  0.11506718362215906  1.0000
  H   H9        1.0  0.126464132219553  0.5489646855858155  0.7785282656550407  1.0000
  H   H10       1.0  0.013707231351872906  0.5240402263589203  0.4001578165916726  1.0000
  H   H11       1.0  0.7200693106278777  0.8456886096391827  0.8533042168710381  1.0000
  H   H12       1.0  0.411822360008955  0.19162313174456358  0.48171389009803534  1.0000
  H   H13       1.0  0.7526167803443968  0.6114243117626756  0.2448040791787207  1.0000
  H   H14       1.0  0.722759025869891  0.5749349799007177  0.9480456709861755  1.0000
  H   H15       1.0  0.9985917508602142  0.9420174211263657  0.6272335331887007  1.0000
  H   H16       1.0  0.8296830682083964  0.6973615630995482  0.9675571026746184  1.0000
  S   S1        1.0  0.10150726698338985  0.6895374746527523  0.23089846409857273  1.0000
  S   S2        1.0  0.6348609626293182  0.9202887006103992  0.7260458748787642  1.0000
  S   S3        1.0  0.4215783216059208  0.08273224905133247  0.956045787781477  1.0000
  S   S4        1.0  0.08415779139613733  0.5844516078941524  0.4332362974528223  1.0000
  S   S5        1.0  0.38180460571311414  0.9555770780425519  0.6917949905619025  1.0000
  S   S6        1.0  0.47581907734274864  0.9816295001655817  0.665981762111187  1.0000
  S   S7        1.0  0.5543561624363065  0.21240280102938414  0.6748796622268856  1.0000
  S   S8        1.0  0.7920840762089938  0.06321230926550925  0.7136829267255962  1.0000
data_image159
_chemical_formula_structural       H16S8
_chemical_formula_sum              "H16 S8"
_cell_length_a       8.83753075774048
_cell_length_b       8.83753075774048
_cell_length_c       8.83753075774048
_cell_angle_alpha    118.690318510586
_cell_angle_beta     118.69031851058598
_cell_angle_gamma    92.28380992055807

_space_group_name_H-M_alt    "P 1"
_space_group_IT_number       1

loop_
  _space_group_symop_operation_xyz
  'x, y, z'

loop_
  _atom_site_type_symbol
  _atom_site_label
  _atom_site_symmetry_multiplicity
  _atom_site_fract_x
  _atom_site_fract_y
  _atom_site_fract_z
  _atom_site_occupancy
  H   H1        1.0  0.3580591302597895  0.3170867725275457  0.49597701244056225  1.0000
  H   H2        1.0  0.723402600735426  0.23547963798046112  0.8853633366525173  1.0000
  H   H3        1.0  0.7116687959060073  0.1413617953658104  0.11932875984348357  1.0000
  H   H4        1.0  0.14474310679361224  0.13583891198504716  0.06892534391954541  1.0000
  H   H5        1.0  0.33089875473524444  0.444313213811256  0.9026148912962526  1.0000
  H   H6        1.0  0.47567099891602993  0.8229115381836891  0.8394053354859352  1.0000
  H   H7        1.0  0.030932371504604816  0.38292362488573417  0.7234732939396054  1.0000
  H   H8        1.0  0.6480486756190658  0.03585347987245768  0.9652929120929912  1.0000
  H   H9        1.0  0.20046335877850652  0.11885253753280267  0.6664666067808867  1.0000
  H   H10       1.0  0.8997775174241269  0.14992671832442284  0.6274205181980506  1.0000
  H   H11       1.0  0.5536267776042223  0.10359790665097535  0.6167708788998425  1.0000
  H   H12       1.0  0.7958212522789836  0.525680142454803  0.139378122985363  1.0000
  H   H13       1.0  0.0040233435574918985  0.4316260165069252  0.7004459173622308  1.0000
  H   H14       1.0  0.5682068080641329  0.2213652776554227  0.333381999284029  1.0000
  H   H15       1.0  0.5119411833584309  0.27708287723362446  0.651758935302496  1.0000
  H   H16       1.0  0.20200327085331082  0.870003740536049  0.6316176371183246  1.0000
  S   S1        1.0  0.5602394416928291  0.18468131055124104  0.6536227037431672  1.0000
  S   S2        1.0  0.7107684835791588  0.9262796584516764  0.13899657130241394  1.0000
  S   S3        1.0  0.26409267354756594  0.2479889653623104  0.13719897344708443  1.0000
  S   S4        1.0  0.22077381663257256  0.9366603582166135  0.5154519873321988  1.0000
  S   S5        1.0  0.45478299143724144  0.7363100496586412  0.011725951917469501  1.0000
  S   S6        1.0  0.20196818560361862  0.8333136960864067  0.47673759050667286  1.0000
  S   S7        1.0  0.24463528115302324  0.9955100268125534  0.9431056748144329  1.0000
  S   S8        1.0  0.2640091481152922  0.4598055186215788  0.3994374724570662  1.0000
data_image160
_chemical_formula_structural       H16S8
_chemical_formula_sum              "H16 S8"
_cell_length_a       8.83753075774048
_cell_length_b       8.83753075774048
_cell_length_c       8.83753075774048
_cell_angle_alpha    118.690318510586
_cell_angle_beta     118.69031851058598
_cell_angle_gamma    92.28380992055807

_space_group_name_H-M_alt    "P 1"
_space_group_IT_number       1

loop_
  _space_group_symop_operation_xyz
  'x, y, z'

loop_
  _atom_site_type_symbol
  _atom_site_label
  _atom_site_symmetry_multiplicity
  _atom_site_fract_x
  _atom_site_fract_y
  _atom_site_fract_z
  _atom_site_occupancy
  H   H1        1.0  0.09263445029500872  0.5771921160630882  0.9917181404307485  1.0000
  H   H2        1.0  0.2177136167883873  0.624780397862196  0.7173121403902769  1.0000
  H   H3        1.0  0.35256043123081326  0.856270088814199  0.33604324830230325  1.0000
  H   H4        1.0  0.43103770492598414  0.717375926906243  0.881495135370642  1.0000
  H   H5        1.0  0.23128121247282252  0.33390711148967966  0.21324284409638494  1.0000
  H   H6        1.0  0.7260145004838705  0.01669355109333992  0.9041392728686333  1.0000
  H   H7        1.0  0.6794059132225811  0.3168080565810669  0.03373934351839125  1.0000
  H   H8        1.0  0.8127988040214404  0.42887388984672725  0.50354312104173  1.0000
  H   H9        1.0  0.42079343367367983  0.7273788632592186  0.835641210898757  1.0000
  H   H10       1.0  0.26670812823431334  0.7448143530637026  0.4227624633349478  1.0000
  H   H11       1.0  0.45049945544451475  0.8153224752750248  0.8046276858076453  1.0000
  H   H12       1.0  0.3408424174413085  0.13840859290212393  0.027489923872053623  1.0000
  H   H13       1.0  0.9788507779594511  0.4334353022277355  0.8522371177969035  1.0000
  H   H14       1.0  0.621411073487252  0.6430021729320288  0.8578147776424885  1.0000
  H   H15       1.0  0.19086630456149578  0.33338719978928566  0.5444446559995413  1.0000
  H   H16       1.0  0.2515870491042733  0.7545607923530042  0.753601020667702  1.0000
  S   S1        1.0  0.018750923220068216  0.9253421488683671  0.6255927907768637  1.0000
  S   S2        1.0  0.3456203527748585  0.7031971327960491  0.07608721405267715  1.0000
  S   S3        1.0  0.8401650115847588  0.4577172752469778  0.44486943259835243  1.0000
  S   S4        1.0  0.6326496248366311  0.5443896199576557  0.41948041919386014  1.0000
  S   S5        1.0  0.4504127495456487  0.9331890614703298  0.3641356974840164  1.0000
  S   S6        1.0  0.7632475048303604  0.5410121157765388  0.8093630690127611  1.0000
  S   S7        1.0  0.2626646915450692  0.6598758497275412  0.5592333921231329  1.0000
  S   S8        1.0  0.13203261396847665  0.39466354832984507  0.7830310268327594  1.0000
data_image161
_chemical_formula_structural       H16S8
_chemical_formula_sum              "H16 S8"
_cell_length_a       8.83753075774048
_cell_length_b       8.83753075774048
_cell_length_c       8.83753075774048
_cell_angle_alpha    118.690318510586
_cell_angle_beta     118.69031851058598
_cell_angle_gamma    92.28380992055807

_space_group_name_H-M_alt    "P 1"
_space_group_IT_number       1

loop_
  _space_group_symop_operation_xyz
  'x, y, z'

loop_
  _atom_site_type_symbol
  _atom_site_label
  _atom_site_symmetry_multiplicity
  _atom_site_fract_x
  _atom_site_fract_y
  _atom_site_fract_z
  _atom_site_occupancy
  H   H1        1.0  0.7848973737563938  0.9056331673637033  0.056757411919534206  1.0000
  H   H2        1.0  0.4173954352736473  0.6285106427967548  0.9717889204621315  1.0000
  H   H3        1.0  0.06625935714691877  0.07797232829034328  0.9030520463129506  1.0000
  H   H4        1.0  0.8480754597112536  0.14641731313895434  0.45319068152457476  1.0000
  H   H5        1.0  0.10708231454191264  0.07088174519594759  0.2519172338070348  1.0000
  H   H6        1.0  0.012323463335633278  0.3532220907509327  0.1906515397131443  1.0000
  H   H7        1.0  0.8937509129755199  0.3020711877034046  0.9136430966900662  1.0000
  H   H8        1.0  0.8310494211036712  0.3046813375549391  0.2643024339340627  1.0000
  H   H9        1.0  0.6396874845959246  0.6484022763906978  0.46342628449201584  1.0000
  H   H10       1.0  0.2716442314267624  0.20327040320262313  0.2397385984659195  1.0000
  H   H11       1.0  0.06144166365265846  0.6861823399085552  0.0842622087802738  1.0000
  H   H12       1.0  0.4212053259834647  0.6838391674682498  0.6857722476124763  1.0000
  H   H13       1.0  0.9316639334429055  0.30306189018301666  0.4132862811238738  1.0000
  H   H14       1.0  0.47576740640215576  0.36507260240614414  0.6578441523015499  1.0000
  H   H15       1.0  0.698903277516365  0.8672737814486027  0.34139641001820564  1.0000
  H   H16       1.0  0.5856687412597239  0.44001756026409566  0.11039660102687776  1.0000
  S   S1        1.0  0.014876596396788955  0.5814764546230435  0.5547603919403628  1.0000
  S   S2        1.0  0.7339081391692162  0.6293406393378973  0.12511952221393585  1.0000
  S   S3        1.0  0.31460608169436455  0.9090202543884516  0.6708049550652504  1.0000
  S   S4        1.0  0.5474514223169535  0.031919351080432534  0.6313732480630279  1.0000
  S   S5        1.0  0.15446827420964837  0.998395360307768  0.6697141528129578  1.0000
  S   S6        1.0  0.6865160688757896  0.43865774758160114  0.7023271229118109  1.0000
  S   S7        1.0  0.56067267479375  0.8398405592888594  0.15613405173644423  1.0000
  S   S8        1.0  0.8551724387798458  0.9856956736184657  0.8732645430136472  1.0000
data_image162
_chemical_formula_structural       H16S8
_chemical_formula_sum              "H16 S8"
_cell_length_a       8.83753075774048
_cell_length_b       8.83753075774048
_cell_length_c       8.83753075774048
_cell_angle_alpha    118.690318510586
_cell_angle_beta     118.69031851058598
_cell_angle_gamma    92.28380992055807

_space_group_name_H-M_alt    "P 1"
_space_group_IT_number       1

loop_
  _space_group_symop_operation_xyz
  'x, y, z'

loop_
  _atom_site_type_symbol
  _atom_site_label
  _atom_site_symmetry_multiplicity
  _atom_site_fract_x
  _atom_site_fract_y
  _atom_site_fract_z
  _atom_site_occupancy
  H   H1        1.0  0.09971717977896333  0.20630447892472148  0.3211197894997895  1.0000
  H   H2        1.0  0.24999413639307022  0.7211170271039009  0.9105915017426014  1.0000
  H   H3        1.0  0.7487326716072857  0.5276771038770676  0.9481978311669081  1.0000
  H   H4        1.0  0.21284261951223016  0.5242455617990345  0.57196349138394  1.0000
  H   H5        1.0  0.26745248812949285  0.9048495189053938  0.35389306664001197  1.0000
  H   H6        1.0  0.5529714114964008  0.6860648039728403  0.6494215875864029  1.0000
  H   H7        1.0  0.3112338655628264  0.207759255747078  0.5751528943656012  1.0000
  H   H8        1.0  0.6891345179174095  0.10193842847365886  0.001347875688225031  1.0000
  H   H9        1.0  0.17879878589883447  0.5159223378868774  0.07461085543036461  1.0000
  H   H10       1.0  0.7627676563934074  0.9960429221391678  0.7403238728875294  1.0000
  H   H11       1.0  0.02088786382228136  0.9499944890849292  0.8155992249958217  1.0000
  H   H12       1.0  0.5328015899285674  0.7969203097745776  0.625283564440906  1.0000
  H   H13       1.0  0.6299844374880195  0.43762635556049645  0.5394107552419882  1.0000
  H   H14       1.0  0.2625878450926393  0.17113653104752302  0.10241036117076874  1.0000
  H   H15       1.0  0.727347232401371  0.2311452403664589  0.762438440695405  1.0000
  H   H16       1.0  0.6174955856986344  0.606256477534771  0.46096807694993913  1.0000
  S   S1        1.0  0.6876579576637596  0.04923032340593636  0.32960523944348097  1.0000
  S   S2        1.0  0.9731156080961227  0.9448201972991228  0.20292597636580467  1.0000
  S   S3        1.0  0.21312232315540314  0.28458125330507755  0.04867452010512352  1.0000
  S   S4        1.0  0.1256978515884839  0.9816184877417982  0.4340161381987855  1.0000
  S   S5        1.0  0.23501347564160824  0.7514653236139566  0.5604012319818139  1.0000
  S   S6        1.0  0.5043509230017662  0.9260998759418726  0.29952982626855373  1.0000
  S   S7        1.0  0.803132563829422  0.14652976300567389  0.9229073384776711  1.0000
  S   S8        1.0  0.6317769538145512  0.10717094410210848  0.8254194280598313  1.0000
data_image163
_chemical_formula_structural       H16S8
_chemical_formula_sum              "H16 S8"
_cell_length_a       8.83753075774048
_cell_length_b       8.83753075774048
_cell_length_c       8.83753075774048
_cell_angle_alpha    118.690318510586
_cell_angle_beta     118.69031851058598
_cell_angle_gamma    92.28380992055807

_space_group_name_H-M_alt    "P 1"
_space_group_IT_number       1

loop_
  _space_group_symop_operation_xyz
  'x, y, z'

loop_
  _atom_site_type_symbol
  _atom_site_label
  _atom_site_symmetry_multiplicity
  _atom_site_fract_x
  _atom_site_fract_y
  _atom_site_fract_z
  _atom_site_occupancy
  H   H1        1.0  0.5582146431552246  0.9953987463377416  0.039329218212515116  1.0000
  H   H2        1.0  0.3662060834467411  0.7115981169044971  0.512642178684473  1.0000
  H   H3        1.0  0.015979602467268705  0.6300662672147155  0.9271411435911432  1.0000
  H   H4        1.0  0.33981410693377256  0.4342343396274373  0.323718577157706  1.0000
  H   H5        1.0  0.0440074035723228  0.02950872346991673  0.03856677340809256  1.0000
  H   H6        1.0  0.6230210866779089  0.6000704392790794  0.1626758575439453  1.0000
  H   H7        1.0  0.9348926125094295  0.3864060948253609  0.27533494704402983  1.0000
  H   H8        1.0  0.31448877369984984  0.650436258292757  0.4829123583622277  1.0000
  H   H9        1.0  0.7801541844382882  0.4513642251258716  0.176735395565629  1.0000
  H   H10       1.0  0.44829258452227805  0.8761566439643502  0.060081723087932914  1.0000
  H   H11       1.0  0.09388089459389448  0.2722694780677557  0.6559088607318699  1.0000
  H   H12       1.0  0.05818886402994394  0.4378348058089614  0.618035146035254  1.0000
  H   H13       1.0  0.06814308976754546  0.9346411193255335  0.39392530295299366  1.0000
  H   H14       1.0  0.7920880955643952  0.7130667623132467  0.9616191945970058  1.0000
  H   H15       1.0  0.6957982294261456  0.4060802701860666  0.1169846523553133  1.0000
  H   H16       1.0  0.4535531271249056  0.017836654791608453  0.7465221455786377  1.0000
  S   S1        1.0  0.8258515112102032  0.9621462300419807  0.16389381792396307  1.0000
  S   S2        1.0  0.6307538039982319  0.7999080829322338  0.24921714887022972  1.0000
  S   S3        1.0  0.7578361816704273  0.41408456675708294  0.8361983373761177  1.0000
  S   S4        1.0  0.5467292129178531  0.8426696858368814  0.2232634822721593  1.0000
  S   S5        1.0  0.7864729892462492  0.10155265685170889  0.5820544613525271  1.0000
  S   S6        1.0  0.9949445687234402  0.8190440591424704  0.17648410238325596  1.0000
  S   S7        1.0  0.8163782055489719  0.11625189799815416  0.20205326844006777  1.0000
  S   S8        1.0  0.25972314761020243  0.6945679625496268  0.8440187587402761  1.0000
data_image164
_chemical_formula_structural       H16S8
_chemical_formula_sum              "H16 S8"
_cell_length_a       8.83753075774048
_cell_length_b       8.83753075774048
_cell_length_c       8.83753075774048
_cell_angle_alpha    118.690318510586
_cell_angle_beta     118.69031851058598
_cell_angle_gamma    92.28380992055807

_space_group_name_H-M_alt    "P 1"
_space_group_IT_number       1

loop_
  _space_group_symop_operation_xyz
  'x, y, z'

loop_
  _atom_site_type_symbol
  _atom_site_label
  _atom_site_symmetry_multiplicity
  _atom_site_fract_x
  _atom_site_fract_y
  _atom_site_fract_z
  _atom_site_occupancy
  H   H1        1.0  0.1581894748378545  0.44240695098415017  0.7419147226028144  1.0000
  H   H2        1.0  0.4903590939939022  0.894621305167675  0.5019211862236261  1.0000
  H   H3        1.0  0.3803996564820409  0.6787328077480197  0.7163887734059244  1.0000
  H   H4        1.0  0.4897759798914194  0.4287791672395542  0.6086723110638559  1.0000
  H   H5        1.0  0.6781517021008767  0.6943038057652302  0.3026786634000018  1.0000
  H   H6        1.0  0.511276438832283  0.1658678576350212  0.7910972163081169  1.0000
  H   H7        1.0  0.09870790969580412  0.8265845740097575  0.7383164777420461  1.0000
  H   H8        1.0  0.5000087933149189  0.58541414514184  0.9283105639042333  1.0000
  H   H9        1.0  0.735936819575727  0.4474582789116539  0.5277064833790064  1.0000
  H   H10       1.0  0.25676777448825305  0.8168025687336922  0.6701278921100311  1.0000
  H   H11       1.0  0.48730378970503807  0.9822556579019874  0.6229370362125337  1.0000
  H   H12       1.0  0.3038114160299301  0.9701338848099113  0.7363109262660146  1.0000
  H   H13       1.0  0.25194149394519627  0.43497507204301655  0.6162916920002317  1.0000
  H   H14       1.0  0.3663188279606402  0.18995365127921104  0.03439240902662277  1.0000
  H   H15       1.0  0.42902208119630814  0.9754614550620317  0.1746484823524952  1.0000
  H   H16       1.0  0.42182042449712753  0.07849236391484737  0.3870380048174411  1.0000
  S   S1        1.0  0.8726195183116943  0.07739918027073145  0.5717314910143614  1.0000
  S   S2        1.0  0.8124831393361092  0.6546749081462622  0.1933293119072914  1.0000
  S   S3        1.0  0.9692884366959333  0.40287686325609684  0.6912148557603359  1.0000
  S   S4        1.0  0.11013592779636383  0.6287101784255356  0.5124464775435627  1.0000
  S   S5        1.0  0.14782642689533532  0.8238406728487462  0.35006861900910735  1.0000
  S   S6        1.0  0.42610975727438927  0.9694900065660477  0.15698637999594212  1.0000
  S   S7        1.0  0.037966550793498755  0.9151032525114715  0.5196664426475763  1.0000
  S   S8        1.0  0.913950401591137  0.2486006545368582  0.9500611063558608  1.0000
data_image165
_chemical_formula_structural       H16S8
_chemical_formula_sum              "H16 S8"
_cell_length_a       8.83753075774048
_cell_length_b       8.83753075774048
_cell_length_c       8.83753075774048
_cell_angle_alpha    118.690318510586
_cell_angle_beta     118.69031851058598
_cell_angle_gamma    92.28380992055807

_space_group_name_H-M_alt    "P 1"
_space_group_IT_number       1

loop_
  _space_group_symop_operation_xyz
  'x, y, z'

loop_
  _atom_site_type_symbol
  _atom_site_label
  _atom_site_symmetry_multiplicity
  _atom_site_fract_x
  _atom_site_fract_y
  _atom_site_fract_z
  _atom_site_occupancy
  H   H1        1.0  0.09862944670021534  0.36031932849437  0.04885035287588835  1.0000
  H   H2        1.0  0.2334856353700161  0.19886692613363266  0.2456313967704773  1.0000
  H   H3        1.0  0.4703191830776632  0.9590424215421081  0.7066259179264307  1.0000
  H   H4        1.0  0.6677178973332047  0.048541042720898986  0.7883338094688952  1.0000
  H   H5        1.0  0.760570010999345  0.24558199872262776  0.704345720121637  1.0000
  H   H6        1.0  0.5376039762049913  0.39173050597310066  0.6105709411203861  1.0000
  H   H7        1.0  0.8824447430670261  0.39357330882921815  0.06920849881134927  1.0000
  H   H8        1.0  0.05771224177442491  0.21247071935795248  0.4188326094299555  1.0000
  H   H9        1.0  0.9913510121405125  0.21385779359843582  0.1992571521550417  1.0000
  H   H10       1.0  0.23667006359028164  0.8891964862123132  0.7628986708587036  1.0000
  H   H11       1.0  0.5843834839761257  0.5756927591282874  0.7774683628231287  1.0000
  H   H12       1.0  0.7943970104679465  0.5386706395074725  0.7276426246389747  1.0000
  H   H13       1.0  0.28291665809229016  0.7904592526610941  0.9283588330436032  1.0000
  H   H14       1.0  0.6320219356566668  0.5709985550493002  0.39075402542948723  1.0000
  H   H15       1.0  0.6858465000987053  0.3061409927904606  0.8530062641948462  1.0000
  H   H16       1.0  0.5503337848931551  0.8532864837907255  0.9054222006816417  1.0000
  S   S1        1.0  0.06855035154148936  0.42403265414759517  0.3299450915073976  1.0000
  S   S2        1.0  0.711097776889801  0.1887151300907135  0.3408626690506935  1.0000
  S   S3        1.0  0.48991141840815544  0.2319248430430889  0.4698709584772587  1.0000
  S   S4        1.0  0.06230515259085223  0.8614622105378658  0.5348956864327192  1.0000
  S   S5        1.0  0.9006185403559357  0.16964002512395382  0.6978249032981694  1.0000
  S   S6        1.0  0.009813133627176285  0.9338776413351297  0.09648515656590462  1.0000
  S   S7        1.0  0.7912890431471169  0.3248094245791435  0.7886141994968057  1.0000
  S   S8        1.0  0.7844875485170633  0.3235654099844396  0.616416965611279  1.0000
data_image166
_chemical_formula_structural       H16S8
_chemical_formula_sum              "H16 S8"
_cell_length_a       8.83753075774048
_cell_length_b       8.83753075774048
_cell_length_c       8.83753075774048
_cell_angle_alpha    118.690318510586
_cell_angle_beta     118.69031851058598
_cell_angle_gamma    92.28380992055807

_space_group_name_H-M_alt    "P 1"
_space_group_IT_number       1

loop_
  _space_group_symop_operation_xyz
  'x, y, z'

loop_
  _atom_site_type_symbol
  _atom_site_label
  _atom_site_symmetry_multiplicity
  _atom_site_fract_x
  _atom_site_fract_y
  _atom_site_fract_z
  _atom_site_occupancy
  H   H1        1.0  0.35629084380343556  0.19994605658575892  0.30485967081040144  1.0000
  H   H2        1.0  0.7435718178749084  0.49753134697675705  0.7088867146521807  1.0000
  H   H3        1.0  0.894581482745707  0.6085766525939107  0.04069923760835081  1.0000
  H   H4        1.0  0.395524924620986  0.44277248144499026  0.11801842064596713  1.0000
  H   H5        1.0  0.31703403172286926  0.9796042283755924  0.7402809895575047  1.0000
  H   H6        1.0  0.12890996970236301  0.5625424794852734  0.45050549879670143  1.0000
  H   H7        1.0  0.5907195420004427  0.3476304574360256  0.8860485599143431  1.0000
  H   H8        1.0  0.29579484194982797  0.8964963126927614  0.31784066394902766  1.0000
  H   H9        1.0  0.8304655607789755  0.44761436141561717  0.2979755662381649  1.0000
  H   H10       1.0  0.028550044225994498  0.3765808856114745  0.6299872546514962  1.0000
  H   H11       1.0  0.29276452399790287  0.7616908340714872  0.21721292799338698  1.0000
  H   H12       1.0  0.15847230795770884  0.9847575249150395  0.32186660170555115  1.0000
  H   H13       1.0  0.1884671221487224  0.9968104918953031  0.9977645969338482  1.0000
  H   H14       1.0  0.9232815844006836  0.2634972222149372  0.39005549997091293  1.0000
  H   H15       1.0  0.008801288902759552  0.8512627743184566  0.2085010539740324  1.0000
  H   H16       1.0  0.8285549534484744  0.2569775970187038  0.26593525940552354  1.0000
  S   S1        1.0  0.5980659632477909  0.4373955652117729  0.8369835922494531  1.0000
  S   S2        1.0  0.8294407278299332  0.20290513336658478  0.4917425513267517  1.0000
  S   S3        1.0  0.5362902916967869  0.06294086761772633  0.6583584398031235  1.0000
  S   S4        1.0  0.9434744012542069  0.34953071759082377  0.5481950673274696  1.0000
  S   S5        1.0  0.8530121364165097  0.2842766526155174  0.21012667147442698  1.0000
  S   S6        1.0  0.6971582397818565  0.0017243865877389908  0.1662503257393837  1.0000
  S   S7        1.0  0.8699033283628523  0.19949593534693122  0.9689660002477467  1.0000
  S   S8        1.0  0.3736648128833622  0.044651380740106106  0.41663477569818497  1.0000
data_image167
_chemical_formula_structural       H16S8
_chemical_formula_sum              "H16 S8"
_cell_length_a       8.83753075774048
_cell_length_b       8.83753075774048
_cell_length_c       8.83753075774048
_cell_angle_alpha    118.690318510586
_cell_angle_beta     118.69031851058598
_cell_angle_gamma    92.28380992055807

_space_group_name_H-M_alt    "P 1"
_space_group_IT_number       1

loop_
  _space_group_symop_operation_xyz
  'x, y, z'

loop_
  _atom_site_type_symbol
  _atom_site_label
  _atom_site_symmetry_multiplicity
  _atom_site_fract_x
  _atom_site_fract_y
  _atom_site_fract_z
  _atom_site_occupancy
  H   H1        1.0  0.5785888193640858  0.4258380667306483  0.6898022047244012  1.0000
  H   H2        1.0  0.6071618124842644  0.3098643086850643  0.4599730707705021  1.0000
  H   H3        1.0  0.05144736170768738  0.14778053667396307  0.5210841960506514  1.0000
  H   H4        1.0  0.4562699543312192  0.5733337294077501  0.6909194542095065  1.0000
  H   H5        1.0  0.5825134974438697  0.730936296589789  0.18996714381501079  1.0000
  H   H6        1.0  0.20959852449595928  0.5487997829914093  0.5291916206479073  1.0000
  H   H7        1.0  0.9964049658738077  0.831269482820062  0.2263821557862684  1.0000
  H   H8        1.0  0.0992160418536514  0.6918084479402751  0.15986779355444014  1.0000
  H   H9        1.0  0.23659743461757898  0.7037499334837776  0.6890240553766489  1.0000
  H   H10       1.0  0.5371868588263169  0.5715727168135345  0.07894378632045118  1.0000
  H   H11       1.0  0.781852955929935  0.5326789473183453  0.7654463043436408  1.0000
  H   H12       1.0  0.14810419734567404  0.36164501681923866  0.20082340948283672  1.0000
  H   H13       1.0  0.8456066679209471  0.09369312645867467  0.6306992681638803  1.0000
  H   H14       1.0  0.963606582954526  0.27651177532970905  0.5076143741607666  1.0000
  H   H15       1.0  0.6522487588226795  0.07573593966662884  0.715436052531004  1.0000
  H   H16       1.0  0.8404746991582215  0.4979606824927032  0.8443341450765729  1.0000
  S   S1        1.0  0.8566014224197716  0.6658908440731466  0.27020759938750416  1.0000
  S   S2        1.0  0.8654638901352882  0.8570139408111572  0.9257047958672047  1.0000
  S   S3        1.0  0.9281132910400629  0.8892013095319271  0.1273093931376934  1.0000
  S   S4        1.0  0.6499226068845019  0.9544344998430461  0.8438128931447864  1.0000
  S   S5        1.0  0.8665805347263813  0.45426050992682576  0.4533494212664664  1.0000
  S   S6        1.0  0.7173163406550884  0.6260755956172943  0.24321465007960796  1.0000
  S   S7        1.0  0.10889316955581307  0.8344510728493333  0.6364125381223857  1.0000
  S   S8        1.0  0.11815569875761867  0.29790092376060784  0.060150524601340294  1.0000
data_image168
_chemical_formula_structural       H16S8
_chemical_formula_sum              "H16 S8"
_cell_length_a       8.83753075774048
_cell_length_b       8.83753075774048
_cell_length_c       8.83753075774048
_cell_angle_alpha    118.690318510586
_cell_angle_beta     118.69031851058598
_cell_angle_gamma    92.28380992055807

_space_group_name_H-M_alt    "P 1"
_space_group_IT_number       1

loop_
  _space_group_symop_operation_xyz
  'x, y, z'

loop_
  _atom_site_type_symbol
  _atom_site_label
  _atom_site_symmetry_multiplicity
  _atom_site_fract_x
  _atom_site_fract_y
  _atom_site_fract_z
  _atom_site_occupancy
  H   H1        1.0  0.2352351900190115  0.0179050718434155  0.5572983990423381  1.0000
  H   H2        1.0  0.6919580772519112  0.9377000220119953  0.17552877590060234  1.0000
  H   H3        1.0  0.5722523643635213  0.9131721165031195  0.822666043532081  1.0000
  H   H4        1.0  0.3551950245164335  0.679765576554928  0.9440181714016944  1.0000
  H   H5        1.0  0.9239416040290962  0.8042281035595806  0.53083037561737  1.0000
  H   H6        1.0  0.7118782568722963  0.3281877376139164  0.6189922764897346  1.0000
  H   H7        1.0  0.11355515429750085  0.4228394384117564  0.49721635214518756  1.0000
  H   H8        1.0  0.13240562239661813  0.010916923405602574  0.7761139977455969  1.0000
  H   H9        1.0  0.09094660449773073  0.23101742524886504  0.8558461368083954  1.0000
  H   H10       1.0  0.6029200834454969  0.4806185644119978  0.4403144215029897  1.0000
  H   H11       1.0  0.9361525354906917  0.15921018505468965  0.7247118656523526  1.0000
  H   H12       1.0  0.17335266433656216  0.039001804776489735  0.1830437956377864  1.0000
  H   H13       1.0  0.0697674083057791  0.8259797501377761  0.39713670857599936  1.0000
  H   H14       1.0  0.6156325484625995  0.6626186762005091  0.6159994006156921  1.0000
  H   H15       1.0  0.9596270434558392  0.28467912413179874  0.7943665329366922  1.0000
  H   H16       1.0  0.7536605871282518  0.301318610785529  0.6274076995905489  1.0000
  S   S1        1.0  0.7005869904533029  0.9627968274289742  0.4771105033578351  1.0000
  S   S2        1.0  0.3586268946528435  0.6393478028476238  0.5396912377327681  1.0000
  S   S3        1.0  0.13823099620640278  0.8706983923912048  0.01891232281923294  1.0000
  S   S4        1.0  0.8104466024087742  0.9092019647359848  0.047009491245262325  1.0000
  S   S5        1.0  0.2664796467870474  0.19230687245726585  0.8716493905521929  1.0000
  S   S6        1.0  0.22339683026075363  0.08527453802525997  0.38844142854213715  1.0000
  S   S7        1.0  0.6840648823417723  0.23191886954009533  0.5114931287243962  1.0000
  S   S8        1.0  0.6460799826309085  0.0319130071438849  0.28173718275502324  1.0000
data_image169
_chemical_formula_structural       H16S8
_chemical_formula_sum              "H16 S8"
_cell_length_a       8.83753075774048
_cell_length_b       8.83753075774048
_cell_length_c       8.83753075774048
_cell_angle_alpha    118.690318510586
_cell_angle_beta     118.69031851058598
_cell_angle_gamma    92.28380992055807

_space_group_name_H-M_alt    "P 1"
_space_group_IT_number       1

loop_
  _space_group_symop_operation_xyz
  'x, y, z'

loop_
  _atom_site_type_symbol
  _atom_site_label
  _atom_site_symmetry_multiplicity
  _atom_site_fract_x
  _atom_site_fract_y
  _atom_site_fract_z
  _atom_site_occupancy
  H   H1        1.0  0.671051311539486  0.5795076186768711  0.9210882801562548  1.0000
  H   H2        1.0  0.7334456369280815  0.33177196979522705  0.04922301694750786  1.0000
  H   H3        1.0  0.27086063427850604  0.644479438662529  0.14893232053145766  1.0000
  H   H4        1.0  0.8073323438875377  0.16632917802780867  0.7244461739901453  1.0000
  H   H5        1.0  0.016341926937457174  0.5425562078744406  0.8442414295859635  1.0000
  H   H6        1.0  0.8441453278064728  0.6325216852128506  0.9713657200336456  1.0000
  H   H7        1.0  0.5670690047554672  0.10548329108132748  0.6795817608945072  1.0000
  H   H8        1.0  0.30796024668961763  0.3089552979217842  0.9159520404500654  1.0000
  H   H9        1.0  0.542786727193743  0.7919888970209286  0.03371048718690872  1.0000
  H   H10       1.0  0.5182419217890128  0.2576123671606183  0.09861509245820343  1.0000
  H   H11       1.0  0.2834772476926446  0.5528472496662289  0.11166227259673178  1.0000
  H   H12       1.0  0.4210493890568614  0.40199735667556524  0.18765367660671473  1.0000
  H   H13       1.0  0.7957849118392915  0.7609066965524107  0.5697128109168261  1.0000
  H   H14       1.0  0.15173830091953278  0.8269350593909621  0.3364126533269882  1.0000
  H   H15       1.0  0.15826483443379402  0.1823643408715725  0.6756670828908682  1.0000
  H   H16       1.0  0.48981332825496793  0.0014515460934489965  0.6850374890491366  1.0000
  S   S1        1.0  0.6685159199405462  0.28338400507345796  0.7416578521952033  1.0000
  S   S2        1.0  0.8372502140700817  0.619125360623002  0.33017125725746155  1.0000
  S   S3        1.0  0.45177669916301966  0.1851719580590725  0.42761701345443726  1.0000
  S   S4        1.0  0.9807286423165351  0.49865690106526017  0.45989250391721725  1.0000
  S   S5        1.0  0.7625022088177502  0.9919788965489715  0.2189719402231276  1.0000
  S   S6        1.0  0.9944253116846085  0.5169825702905655  0.6374767012894154  1.0000
  S   S7        1.0  0.188338709063828  0.4450675081461668  0.49783466616645455  1.0000
  S   S8        1.0  0.8298764848150313  0.38014101702719927  0.7441683602519333  1.0000
data_image170
_chemical_formula_structural       H16S8
_chemical_formula_sum              "H16 S8"
_cell_length_a       8.83753075774048
_cell_length_b       8.83753075774048
_cell_length_c       8.83753075774048
_cell_angle_alpha    118.690318510586
_cell_angle_beta     118.69031851058598
_cell_angle_gamma    92.28380992055807

_space_group_name_H-M_alt    "P 1"
_space_group_IT_number       1

loop_
  _space_group_symop_operation_xyz
  'x, y, z'

loop_
  _atom_site_type_symbol
  _atom_site_label
  _atom_site_symmetry_multiplicity
  _atom_site_fract_x
  _atom_site_fract_y
  _atom_site_fract_z
  _atom_site_occupancy
  H   H1        1.0  0.4771613166667521  0.5569086181931198  0.38256207294762135  1.0000
  H   H2        1.0  0.8512443266808987  0.316497340798378  0.6674960181117058  1.0000
  H   H3        1.0  0.2578880935907364  0.34420194011181593  0.980391945457086  1.0000
  H   H4        1.0  0.87491788668558  0.8883505535777658  0.9317641460802406  1.0000
  H   H5        1.0  0.5104044369509211  0.43526852983632125  0.956634602509439  1.0000
  H   H6        1.0  0.9210080280900002  0.5767833143472672  0.2295834980905056  1.0000
  H   H7        1.0  0.4242113861255348  0.9859116742009064  0.06752819300163537  1.0000
  H   H8        1.0  0.7362734717316926  0.9676232235506177  0.7205086094618309  1.0000
  H   H9        1.0  0.4729288648813963  0.40413194652137463  0.7745665702968836  1.0000
  H   H10       1.0  0.5024710192810744  0.5913854110985994  0.35633712529670447  1.0000
  H   H11       1.0  0.4438444431871176  0.7763401623815298  0.9660344377625734  1.0000
  H   H12       1.0  0.8597671631723642  0.5412008492276073  0.6853422587737441  1.0000
  H   H13       1.0  0.8430466074496508  0.7768124765716493  0.387784531340003  1.0000
  H   H14       1.0  0.39902452379465103  0.4533501183614135  0.5875586196780205  1.0000
  H   H15       1.0  0.8448964916169643  0.8384614083915949  0.44603501446545124  1.0000
  H   H16       1.0  0.7811909862793982  0.9176344510633498  0.2208787037525326  1.0000
  S   S1        1.0  0.21005836594849825  0.19219979061745107  0.7035434251883999  1.0000
  S   S2        1.0  0.5951596088707447  0.4041094370186329  0.7466865386813879  1.0000
  S   S3        1.0  0.5489237625151873  0.9339877273887396  0.013691086322069168  1.0000
  S   S4        1.0  0.799531708820723  0.5716674092691392  0.3138584567932412  1.0000
  S   S5        1.0  0.08718420728109777  0.5455200914293528  0.14903100673109293  1.0000
  S   S6        1.0  0.6373173147439957  0.4279989004135132  0.5458658207207918  1.0000
  S   S7        1.0  0.16968803573399782  0.017799473833292723  0.5299453544430435  1.0000
  S   S8        1.0  0.9209973281249404  0.42090670322068036  0.9436722411774099  1.0000
data_image171
_chemical_formula_structural       H16S8
_chemical_formula_sum              "H16 S8"
_cell_length_a       8.83753075774048
_cell_length_b       8.83753075774048
_cell_length_c       8.83753075774048
_cell_angle_alpha    118.690318510586
_cell_angle_beta     118.69031851058598
_cell_angle_gamma    92.28380992055807

_space_group_name_H-M_alt    "P 1"
_space_group_IT_number       1

loop_
  _space_group_symop_operation_xyz
  'x, y, z'

loop_
  _atom_site_type_symbol
  _atom_site_label
  _atom_site_symmetry_multiplicity
  _atom_site_fract_x
  _atom_site_fract_y
  _atom_site_fract_z
  _atom_site_occupancy
  H   H1        1.0  0.6131557077169418  0.19425921887159348  0.6700878334231675  1.0000
  H   H2        1.0  0.5704559646546841  0.3826543614268303  0.7275274768471718  1.0000
  H   H3        1.0  0.4640171257779002  0.8932667560875416  0.8778938270406798  1.0000
  H   H4        1.0  0.10952654667198658  0.8444156151381321  0.788788725156337  1.0000
  H   H5        1.0  0.9498156942281639  0.6333963929937454  0.48570634005591273  1.0000
  H   H6        1.0  0.441544022411108  0.6356161534786224  0.09140989184379578  1.0000
  H   H7        1.0  0.2845846088603139  0.9554465090259328  0.28767795115709305  1.0000
  H   H8        1.0  0.4859208334237337  0.9652880697976798  0.8459554153087083  1.0000
  H   H9        1.0  0.2077122605405748  0.3329621505108662  0.9772123470902443  1.0000
  H   H10       1.0  0.16372236260212958  0.5013421773910522  0.9482891105872113  1.0000
  H   H11       1.0  0.5584277482703328  0.2818752524908632  0.34203301137313247  1.0000
  H   H12       1.0  0.5848251013085246  0.8354660142213106  0.7230947110801935  1.0000
  H   H13       1.0  0.20808374881744385  0.6313552798237652  0.00147078069858253  1.0000
  H   H14       1.0  0.3490506475791335  0.8758414816111326  0.33679725229740143  1.0000
  H   H15       1.0  0.8054826147854328  0.2309145051985979  0.8132897764444351  1.0000
  H   H16       1.0  0.4217814989387989  0.9990893178619444  0.3568964023143053  1.0000
  S   S1        1.0  0.953229020582512  0.39610928599722683  0.6725938704330474  1.0000
  S   S2        1.0  0.018357761204242706  0.9058657623827457  0.7437905501574278  1.0000
  S   S3        1.0  0.24075045995414257  0.5465409811586142  0.8241741731762886  1.0000
  S   S4        1.0  0.1972109037451446  0.8909014619421214  0.8230783654144034  1.0000
  S   S5        1.0  0.5549251695629209  0.7754959873855114  0.9629523288458586  1.0000
  S   S6        1.0  0.07809624075889587  0.025513913482427597  0.6016160920262337  1.0000
  S   S7        1.0  0.9465358965098858  0.6432435978204012  0.3477061712183058  1.0000
  S   S8        1.0  0.1386635359376669  0.1205366866197437  0.46029320918023586  1.0000
data_image172
_chemical_formula_structural       H16S8
_chemical_formula_sum              "H16 S8"
_cell_length_a       8.83753075774048
_cell_length_b       8.83753075774048
_cell_length_c       8.83753075774048
_cell_angle_alpha    118.690318510586
_cell_angle_beta     118.69031851058598
_cell_angle_gamma    92.28380992055807

_space_group_name_H-M_alt    "P 1"
_space_group_IT_number       1

loop_
  _space_group_symop_operation_xyz
  'x, y, z'

loop_
  _atom_site_type_symbol
  _atom_site_label
  _atom_site_symmetry_multiplicity
  _atom_site_fract_x
  _atom_site_fract_y
  _atom_site_fract_z
  _atom_site_occupancy
  H   H1        1.0  0.6418724393006414  0.5847983779385686  0.7343209460377693  1.0000
  H   H2        1.0  0.22971408441662788  0.7791609466075897  0.5030200462788343  1.0000
  H   H3        1.0  0.8044090159237385  0.2300238711759448  0.04617623635567725  1.0000
  H   H4        1.0  0.02220625150948763  0.48321126092923805  0.30912856850773096  1.0000
  H   H5        1.0  0.26877505439915694  0.7868803407764062  0.21653197635896504  1.0000
  H   H6        1.0  0.41770596243441105  0.9094793684780598  0.7220974676311016  1.0000
  H   H7        1.0  0.7728180242702365  0.973009639128577  0.8310112080071121  1.0000
  H   H8        1.0  0.8101848200894892  0.7899432885460556  0.17740126978605986  1.0000
  H   H9        1.0  0.20990726863965392  0.3928452185355127  0.12144207581877708  1.0000
  H   H10       1.0  0.419237574795261  0.44810733664780855  0.05981153415632434  1.0000
  H   H11       1.0  0.0878918943926692  0.4296881817281246  0.053775552194565535  1.0000
  H   H12       1.0  0.7220615474507213  0.3497132258489728  0.45490121748298407  1.0000
  H   H13       1.0  0.7255124510265887  0.4526017168536782  0.8022982900729403  1.0000
  H   H14       1.0  0.627370067872107  0.9583836290985346  0.23944560810923576  1.0000
  H   H15       1.0  0.1295280158519745  0.6234663426876068  0.24576476030051708  1.0000
  H   H16       1.0  0.5074973381124437  0.43616119120270014  0.6194063464645296  1.0000
  S   S1        1.0  0.9448000236880034  0.12691408558748662  0.8106912348885089  1.0000
  S   S2        1.0  0.5459637604653835  0.14565998874604702  0.7243277560919523  1.0000
  S   S3        1.0  0.5574788386002183  0.9718985855579376  0.38619496673345566  1.0000
  S   S4        1.0  0.6126040289527737  0.03766175825148821  0.8112354864133522  1.0000
  S   S5        1.0  0.6895570650231093  0.481164823519066  0.47304749535396695  1.0000
  S   S6        1.0  0.6620702967047691  0.49133932404220104  0.9384915921837091  1.0000
  S   S7        1.0  0.5869278167374432  0.3169082193635404  0.4868190633133054  1.0000
  S   S8        1.0  0.7668531970120966  0.6250682561658323  0.4873763443902135  1.0000
data_image173
_chemical_formula_structural       H16S8
_chemical_formula_sum              "H16 S8"
_cell_length_a       8.83753075774048
_cell_length_b       8.83753075774048
_cell_length_c       8.83753075774048
_cell_angle_alpha    118.690318510586
_cell_angle_beta     118.69031851058598
_cell_angle_gamma    92.28380992055807

_space_group_name_H-M_alt    "P 1"
_space_group_IT_number       1

loop_
  _space_group_symop_operation_xyz
  'x, y, z'

loop_
  _atom_site_type_symbol
  _atom_site_label
  _atom_site_symmetry_multiplicity
  _atom_site_fract_x
  _atom_site_fract_y
  _atom_site_fract_z
  _atom_site_occupancy
  H   H1        1.0  0.1093729748390615  0.12942651472985744  0.3419572156853974  1.0000
  H   H2        1.0  0.8658798784017563  0.233292356133461  0.2627392914146185  1.0000
  H   H3        1.0  0.4543311074376106  0.6870053112506866  0.1843568505719304  1.0000
  H   H4        1.0  0.6202453821897507  0.8093525945441797  0.547823217115365  1.0000
  H   H5        1.0  0.4524683535855729  0.5060349967534421  0.010933598270639777  1.0000
  H   H6        1.0  0.9843484982848167  0.06690645590424538  0.7907322123646736  1.0000
  H   H7        1.0  0.5889789052307606  0.929694431804819  0.18725187331438065  1.0000
  H   H8        1.0  0.42547212028875947  0.19515787239652127  0.7017128220177256  1.0000
  H   H9        1.0  0.7322498876601458  0.3213055027881637  0.38068955950438976  1.0000
  H   H10       1.0  0.2690844608005136  0.06656763795763254  0.8172149373858701  1.0000
  H   H11       1.0  0.47870355006307364  0.6505517079494894  0.8486824475694448  1.0000
  H   H12       1.0  0.44587597995996475  0.5571178505197167  0.00027229543775320053  1.0000
  H   H13       1.0  0.7282939832657576  0.38324368139728904  0.44160652870777994  1.0000
  H   H14       1.0  0.4686043756082654  0.5967542696744204  0.535119466483593  1.0000
  H   H15       1.0  0.6445203796029091  0.814761059358716  0.3834370505064726  1.0000
  H   H16       1.0  0.3766491529531777  0.19281025882810354  0.21114247618243098  1.0000
  S   S1        1.0  0.22789979237131774  0.4763000067323446  0.3644532618345693  1.0000
  S   S2        1.0  0.34333085268735886  0.8672166019678116  0.6514317598193884  1.0000
  S   S3        1.0  0.2686617309227586  0.686010928824544  0.5998552031815052  1.0000
  S   S4        1.0  0.45554204465588555  0.22623990988358855  0.6528786296257749  1.0000
  S   S5        1.0  0.7891584653407335  0.8772033171262592  0.04684201395139098  1.0000
  S   S6        1.0  0.7158604748547077  0.9442355595529079  0.7302325051277876  1.0000
  S   S7        1.0  0.6762626245617867  0.593298259191215  0.24642508290708065  1.0000
  S   S8        1.0  0.28120210068300366  0.1206435312051326  0.3062283853068948  1.0000
data_image174
_chemical_formula_structural       H16S8
_chemical_formula_sum              "H16 S8"
_cell_length_a       8.83753075774048
_cell_length_b       8.83753075774048
_cell_length_c       8.83753075774048
_cell_angle_alpha    118.690318510586
_cell_angle_beta     118.69031851058598
_cell_angle_gamma    92.28380992055807

_space_group_name_H-M_alt    "P 1"
_space_group_IT_number       1

loop_
  _space_group_symop_operation_xyz
  'x, y, z'

loop_
  _atom_site_type_symbol
  _atom_site_label
  _atom_site_symmetry_multiplicity
  _atom_site_fract_x
  _atom_site_fract_y
  _atom_site_fract_z
  _atom_site_occupancy
  H   H1        1.0  0.2831643717363477  0.7503832639195025  0.0421201353892684  1.0000
  H   H2        1.0  0.560396283864975  0.3244980201125145  0.8278300911188126  1.0000
  H   H3        1.0  0.18791314726695418  0.9263670621439815  0.35190885281190276  1.0000
  H   H4        1.0  0.3085431377403438  0.6514796584378928  0.7613574378192425  1.0000
  H   H5        1.0  0.40307063091313466  0.8107043735508341  0.5598259097896516  1.0000
  H   H6        1.0  0.9946305807679892  0.0853661298751831  0.38291091844439507  1.0000
  H   H7        1.0  0.40610915748402476  0.4691769298224244  0.9913873425684869  1.0000
  H   H8        1.0  0.6845818115398288  0.06730618956498802  0.3328101555816829  1.0000
  H   H9        1.0  0.08063510712236166  0.4806823382386938  0.22221720218658447  1.0000
  H   H10       1.0  0.24603256140835583  0.8820986514911056  0.9883306758711115  1.0000
  H   H11       1.0  0.5573239894583821  0.6744682462885976  0.6190358446910977  1.0000
  H   H12       1.0  0.9076797384768724  0.04132177587598562  0.032737855799496174  1.0000
  H   H13       1.0  0.3326943996362388  0.0974824505392462  0.5694934381172061  1.0000
  H   H14       1.0  0.8209405955858529  0.04329714830964804  0.8455092646181583  1.0000
  H   H15       1.0  0.9331283308565617  0.9887663051486015  0.7712017949670553  1.0000
  H   H16       1.0  0.7353908140212297  0.6237759634386748  0.5449248985387385  1.0000
  S   S1        1.0  0.9474827852100134  0.8811783295823261  0.41072707634884864  1.0000
  S   S2        1.0  0.7307734340429306  0.6997517477720976  0.7772880606353283  1.0000
  S   S3        1.0  0.7881725030019879  0.26942290738224983  0.9805843457579613  1.0000
  S   S4        1.0  0.48734554764814675  0.13546386221423745  0.3006208980223164  1.0000
  S   S5        1.0  0.7494432951789349  0.325401613721624  0.7105104681104422  1.0000
  S   S6        1.0  0.9738022871315479  0.43033789098262787  0.0660683922469616  1.0000
  S   S7        1.0  0.8657009722664952  0.3494337990414351  0.7508789193816483  1.0000
  S   S8        1.0  0.22242992278188467  0.5601596441119909  0.30672680074349046  1.0000
data_image175
_chemical_formula_structural       H16S8
_chemical_formula_sum              "H16 S8"
_cell_length_a       8.83753075774048
_cell_length_b       8.83753075774048
_cell_length_c       8.83753075774048
_cell_angle_alpha    118.690318510586
_cell_angle_beta     118.69031851058598
_cell_angle_gamma    92.28380992055807

_space_group_name_H-M_alt    "P 1"
_space_group_IT_number       1

loop_
  _space_group_symop_operation_xyz
  'x, y, z'

loop_
  _atom_site_type_symbol
  _atom_site_label
  _atom_site_symmetry_multiplicity
  _atom_site_fract_x
  _atom_site_fract_y
  _atom_site_fract_z
  _atom_site_occupancy
  H   H1        1.0  0.8830949456896633  0.6079206741414964  0.7457468253560364  1.0000
  H   H2        1.0  0.8300691321492195  0.4611077420413494  0.34733410365879536  1.0000
  H   H3        1.0  0.3352192770689726  0.2602147860452533  0.08936415589414537  1.0000
  H   H4        1.0  0.9499426227994263  0.5755162567365915  0.011596463387832046  1.0000
  H   H5        1.0  0.3070718819508329  0.6737347777816467  0.669093516189605  1.0000
  H   H6        1.0  0.7447786591947079  0.08053771778941154  0.36114315316081047  1.0000
  H   H7        1.0  0.22924457676708698  0.9590783999592531  0.04226489271968603  1.0000
  H   H8        1.0  0.20504463370889425  0.8458246217342094  0.17640604248299496  1.0000
  H   H9        1.0  0.3166495361365378  0.009417300010682084  0.5501680616289377  1.0000
  H   H10       1.0  0.7970858516637236  0.3549323435872793  0.5292969205183908  1.0000
  H   H11       1.0  0.3891466213390231  0.7990454635582864  0.18812104570679367  1.0000
  H   H12       1.0  0.8712953673675656  0.8660912644118071  0.3284278139472008  1.0000
  H   H13       1.0  0.9552738382481039  0.725993350148201  0.22506406891625375  1.0000
  H   H14       1.0  0.6402817964553833  0.6239976696670055  0.4751521795988083  1.0000
  H   H15       1.0  0.17852859944105148  0.7128397785127163  0.8329152595251799  1.0000
  H   H16       1.0  0.8049574238248169  0.3213271792046726  0.7614063704386353  1.0000
  S   S1        1.0  0.13627735199406743  0.433929753722623  0.5079586904030293  1.0000
  S   S2        1.0  0.8397314660251141  0.037868306040763855  0.6861036736518145  1.0000
  S   S3        1.0  0.5303928144276142  0.8207831550389528  0.3163152150809765  1.0000
  S   S4        1.0  0.07191719696857035  0.023490019841119647  0.832837934140116  1.0000
  S   S5        1.0  0.045373461907729506  0.33169419737532735  0.5446015628986061  1.0000
  S   S6        1.0  0.5698151513934135  0.36381465569138527  0.5005031283944845  1.0000
  S   S7        1.0  0.5468468978069723  0.3649843232706189  0.7976840105839074  1.0000
  S   S8        1.0  0.4381481781601906  0.45631090458482504  0.012262717355042696  1.0000
data_image176
_chemical_formula_structural       H16S8
_chemical_formula_sum              "H16 S8"
_cell_length_a       8.83753075774048
_cell_length_b       8.83753075774048
_cell_length_c       8.83753075774048
_cell_angle_alpha    118.690318510586
_cell_angle_beta     118.69031851058598
_cell_angle_gamma    92.28380992055807

_space_group_name_H-M_alt    "P 1"
_space_group_IT_number       1

loop_
  _space_group_symop_operation_xyz
  'x, y, z'

loop_
  _atom_site_type_symbol
  _atom_site_label
  _atom_site_symmetry_multiplicity
  _atom_site_fract_x
  _atom_site_fract_y
  _atom_site_fract_z
  _atom_site_occupancy
  H   H1        1.0  0.7158021435607225  0.9852992496453226  0.5063734529539943  1.0000
  H   H2        1.0  0.04316860809922218  0.6530081741511822  0.6271002311259508  1.0000
  H   H3        1.0  0.022863127756863832  0.358063698746264  0.6297048102132976  1.0000
  H   H4        1.0  0.007097397465258837  0.3592696691630408  0.6289038567338139  1.0000
  H   H5        1.0  0.5557464745361358  0.008279050758574158  0.20238728867843747  1.0000
  H   H6        1.0  0.5473314989358187  0.029412496834993362  0.8881630934774876  1.0000
  H   H7        1.0  0.6608358919620514  0.5134903478901833  0.9326242434326559  1.0000
  H   H8        1.0  0.46752872318029404  0.34218583221081644  0.6216990252141841  1.0000
  H   H9        1.0  0.10616061091423035  0.45688864539260976  0.09926584362983704  1.0000
  H   H10       1.0  0.46477279684040695  0.9244638029485941  0.7784054430667311  1.0000
  H   H11       1.0  0.7985199354588985  0.16691136546432972  0.6534373264294118  1.0000
  H   H12       1.0  0.8233391316607594  0.9622133485972881  0.8464033054187894  1.0000
  H   H13       1.0  0.8994125768076628  0.038355347933247685  0.6755490505602211  1.0000
  H   H14       1.0  0.43619026942178607  0.36765624210238457  0.9553387947380543  1.0000
  H   H15       1.0  0.33334190398454666  0.34807882085442543  0.8592700473964214  1.0000
  H   H16       1.0  0.8645225206855685  0.7561806903686374  0.7965022954158485  1.0000
  S   S1        1.0  0.5428926663007587  0.9425434967270121  0.6560794319957495  1.0000
  S   S2        1.0  0.6784113682806492  0.2954382263123989  0.2671572770923376  1.0000
  S   S3        1.0  0.681284504942596  0.3075007200241089  0.8370539210736752  1.0000
  S   S4        1.0  0.5364457664545625  0.6676109640393406  0.7595772275235504  1.0000
  S   S5        1.0  0.916610064683482  0.3240931029431522  0.06037800060585141  1.0000
  S   S6        1.0  0.8631484620273113  0.4292716830968857  0.6990729887038469  1.0000
  S   S7        1.0  0.08928136341273785  0.6053207195363939  0.4632006720639765  1.0000
  S   S8        1.0  0.1937931445427239  0.5169688686728477  0.6319579184055328  1.0000
data_image177
_chemical_formula_structural       H16S8
_chemical_formula_sum              "H16 S8"
_cell_length_a       8.83753075774048
_cell_length_b       8.83753075774048
_cell_length_c       8.83753075774048
_cell_angle_alpha    118.690318510586
_cell_angle_beta     118.69031851058598
_cell_angle_gamma    92.28380992055807

_space_group_name_H-M_alt    "P 1"
_space_group_IT_number       1

loop_
  _space_group_symop_operation_xyz
  'x, y, z'

loop_
  _atom_site_type_symbol
  _atom_site_label
  _atom_site_symmetry_multiplicity
  _atom_site_fract_x
  _atom_site_fract_y
  _atom_site_fract_z
  _atom_site_occupancy
  H   H1        1.0  0.8968003399204463  0.8287478089332581  0.46945688873529434  1.0000
  H   H2        1.0  0.8405741937458515  0.13624690473079681  0.09906700439751148  1.0000
  H   H3        1.0  0.43117675371468067  0.7352738790214062  0.5172292762435973  1.0000
  H   H4        1.0  0.18767581321299076  0.0795440140645951  0.04674859787337482  1.0000
  H   H5        1.0  0.1803156001260504  0.9829284310690127  0.6402237652800977  1.0000
  H   H6        1.0  0.4908970985561609  0.1311451867222786  0.568588126450777  1.0000
  H   H7        1.0  0.6099292174912989  0.19903009268455207  0.9735867602284998  1.0000
  H   H8        1.0  0.1481506866402924  0.5544849410653114  0.9661650102207204  1.0000
  H   H9        1.0  0.24350377963855863  0.02205083123408258  0.38379974476993084  1.0000
  H   H10       1.0  0.7370550985215232  0.8907602317631245  0.888348140870221  1.0000
  H   H11       1.0  0.3508412018418312  0.6537826515268534  0.26923088217154145  1.0000
  H   H12       1.0  0.3967084800824523  0.17850524187088013  0.1592112546786666  1.0000
  H   H13       1.0  0.573277086019516  0.4605159042403102  0.32574904384091496  1.0000
  H   H14       1.0  0.51282919337973  0.3031651983037591  0.47823234274983406  1.0000
  H   H15       1.0  0.140781220048666  0.8788246754556894  0.22891916893422604  1.0000
  H   H16       1.0  0.360661345301196  0.243924769340083  0.6436178623698652  1.0000
  S   S1        1.0  0.565438368357718  0.4653754672035575  0.9665745990350842  1.0000
  S   S2        1.0  0.7852232754230499  0.651257487013936  0.5590547062456608  1.0000
  S   S3        1.0  0.8643959229812026  0.4970707967877388  0.619575135409832  1.0000
  S   S4        1.0  0.15995224053040147  0.16224769921973348  0.34807587566319853  1.0000
  S   S5        1.0  0.20756995724514127  0.25047114421613514  0.7918490511365235  1.0000
  S   S6        1.0  0.1525276117026806  0.8826653994619846  0.6127854585647583  1.0000
  S   S7        1.0  0.18837455660104752  0.15211462834849954  0.15635917615145445  1.0000
  S   S8        1.0  0.7084414158016443  0.08122727507725358  0.09954851353541017  1.0000
data_image178
_chemical_formula_structural       H16S8
_chemical_formula_sum              "H16 S8"
_cell_length_a       8.83753075774048
_cell_length_b       8.83753075774048
_cell_length_c       8.83753075774048
_cell_angle_alpha    118.690318510586
_cell_angle_beta     118.69031851058598
_cell_angle_gamma    92.28380992055807

_space_group_name_H-M_alt    "P 1"
_space_group_IT_number       1

loop_
  _space_group_symop_operation_xyz
  'x, y, z'

loop_
  _atom_site_type_symbol
  _atom_site_label
  _atom_site_symmetry_multiplicity
  _atom_site_fract_x
  _atom_site_fract_y
  _atom_site_fract_z
  _atom_site_occupancy
  H   H1        1.0  0.9421217984054238  0.13128472585231066  0.4522063466720283  1.0000
  H   H2        1.0  0.013883393257856369  0.8300898410379887  0.10336958989501  1.0000
  H   H3        1.0  0.15974171180278063  0.589657842181623  0.5696151193697006  1.0000
  H   H4        1.0  0.17345281783491373  0.043336548609659076  0.9758680525701493  1.0000
  H   H5        1.0  0.9878552774316631  0.6621724747237749  0.3984469084534794  1.0000
  H   H6        1.0  0.9218247942626476  0.1695861481130123  0.6400296129286289  1.0000
  H   H7        1.0  0.020521849859505892  0.38908728293608874  0.4887271001935005  1.0000
  H   H8        1.0  0.06576222414150834  0.7443556782091036  0.3574293977289926  1.0000
  H   H9        1.0  0.08359679952263832  0.7683732417644933  0.6233380567282438  1.0000
  H   H10       1.0  0.46916526334825903  0.2662162631750107  0.8677960163913667  1.0000
  H   H11       1.0  0.39952463656663895  0.6545121253002435  0.3033986045047641  1.0000
  H   H12       1.0  0.13009203877300024  0.9468598440289497  0.40704155154526234  1.0000
  H   H13       1.0  0.5735859610140324  0.1609421530738473  0.7100978743983433  1.0000
  H   H14       1.0  0.10835493355989456  0.30493443738669157  0.960614699870348  1.0000
  H   H15       1.0  0.13573159649968147  0.7249690815806389  0.06278771162033081  1.0000
  H   H16       1.0  0.8181524835526943  0.41661896952427924  0.19440370565280318  1.0000
  S   S1        1.0  0.5858049304224551  0.9033741616876796  0.4541366532212123  1.0000
  S   S2        1.0  0.8521673530340195  0.5850895121693611  0.7850534431636333  1.0000
  S   S3        1.0  0.15237707272171974  0.11246233060956001  0.776449665427208  1.0000
  S   S4        1.0  0.9224367369897664  0.7120106625370681  0.5919713388429955  1.0000
  S   S5        1.0  0.6950060764793307  0.5900208007078618  0.9488571397960186  1.0000
  S   S6        1.0  0.9833828397095203  0.30698073096573353  0.15843369625508785  1.0000
  S   S7        1.0  0.6037017414346337  0.3971148752607405  0.5804607034660876  1.0000
  S   S8        1.0  0.9337833737954497  0.48254521773196757  0.05866980692371726  1.0000
data_image179
_chemical_formula_structural       H16S8
_chemical_formula_sum              "H16 S8"
_cell_length_a       8.83753075774048
_cell_length_b       8.83753075774048
_cell_length_c       8.83753075774048
_cell_angle_alpha    118.690318510586
_cell_angle_beta     118.69031851058598
_cell_angle_gamma    92.28380992055807

_space_group_name_H-M_alt    "P 1"
_space_group_IT_number       1

loop_
  _space_group_symop_operation_xyz
  'x, y, z'

loop_
  _atom_site_type_symbol
  _atom_site_label
  _atom_site_symmetry_multiplicity
  _atom_site_fract_x
  _atom_site_fract_y
  _atom_site_fract_z
  _atom_site_occupancy
  H   H1        1.0  0.4297670805826783  0.9857268864288926  0.1442600884474814  1.0000
  H   H2        1.0  0.9937448427081108  0.5871459692716599  0.44636719301342964  1.0000
  H   H3        1.0  0.8930431581102312  0.17205894459038973  0.9806751385331154  1.0000
  H   H4        1.0  0.35821545450016856  0.8570252498611808  0.5110097758006305  1.0000
  H   H5        1.0  0.2731756393914111  0.30168550106463954  0.19545376556925476  1.0000
  H   H6        1.0  0.20347274467349052  0.4247627817094326  0.06884906813502312  1.0000
  H   H7        1.0  0.0639910907484591  0.9957832323852926  0.33507252763956785  1.0000
  H   H8        1.0  0.2153697176836431  0.4406533483415842  0.7106584759749239  1.0000
  H   H9        1.0  0.6656469595618546  0.8771803996060044  0.47428616508841515  1.0000
  H   H10       1.0  0.5978130490402691  0.2901222137734294  0.5842817024094984  1.0000
  H   H11       1.0  0.6258712373673916  0.723229224793613  0.7141294982284307  1.0000
  H   H12       1.0  0.7310193814337254  0.8018273962661624  0.9527493556961417  1.0000
  H   H13       1.0  0.1853889198973775  0.5384787530638278  0.27739758405368775  1.0000
  H   H14       1.0  0.2318533957004547  0.4996845740824938  0.030986089259386063  1.0000
  H   H15       1.0  0.4010893367230892  0.2378290705382824  0.611029252409935  1.0000
  H   H16       1.0  0.1440447074273834  0.7288212340790778  0.5698168952949345  1.0000
  S   S1        1.0  0.9473233600147069  0.005452170269563794  0.7817895072512329  1.0000
  S   S2        1.0  0.3136204667389393  0.3082086518406868  0.8008392807096243  1.0000
  S   S3        1.0  0.785351742990315  0.25537669844925404  0.44619596377015114  1.0000
  S   S4        1.0  0.747345877578482  0.3048928414937109  0.5076423436403275  1.0000
  S   S5        1.0  0.5741883972659707  0.48155204369686544  0.8499440299347043  1.0000
  S   S6        1.0  0.8414611890912056  0.07586142048239708  0.30398370139300823  1.0000
  S   S7        1.0  0.42470941925421357  0.09572292119264603  0.6625745184719563  1.0000
  S   S8        1.0  0.6974143963307142  0.9644029818009585  0.7310727424919605  1.0000
data_image180
_chemical_formula_structural       H16S8
_chemical_formula_sum              "H16 S8"
_cell_length_a       8.83753075774048
_cell_length_b       8.83753075774048
_cell_length_c       8.83753075774048
_cell_angle_alpha    118.690318510586
_cell_angle_beta     118.69031851058598
_cell_angle_gamma    92.28380992055807

_space_group_name_H-M_alt    "P 1"
_space_group_IT_number       1

loop_
  _space_group_symop_operation_xyz
  'x, y, z'

loop_
  _atom_site_type_symbol
  _atom_site_label
  _atom_site_symmetry_multiplicity
  _atom_site_fract_x
  _atom_site_fract_y
  _atom_site_fract_z
  _atom_site_occupancy
  H   H1        1.0  0.07305555162020028  0.9973870059475303  0.18933005491271615  1.0000
  H   H2        1.0  0.4436527416110039  0.6849290430545807  0.2973643932491541  1.0000
  H   H3        1.0  0.16500049037858844  0.5761229591444135  0.9222104968503118  1.0000
  H   H4        1.0  0.36923583084717393  0.8657387895509601  0.5480165337212384  1.0000
  H   H5        1.0  0.6041668263496831  0.49538147769635543  0.29099210537970066  1.0000
  H   H6        1.0  0.021587947383522987  0.980799350887537  0.22745489329099655  1.0000
  H   H7        1.0  0.12255381792783737  0.6723225524183363  0.4705244144424796  1.0000
  H   H8        1.0  0.7196052512153983  0.512723118183203  0.8393331605329877  1.0000
  H   H9        1.0  0.1279174005612731  0.3754796725115739  0.3747230637818575  1.0000
  H   H10       1.0  0.41964762390125543  0.17431524116545916  0.27972612401936203  1.0000
  H   H11       1.0  0.4826563186943531  0.13458671793341637  0.011157830245792866  1.0000
  H   H12       1.0  0.2043422032147646  0.026169871911406517  0.9722828138619661  1.0000
  H   H13       1.0  0.596221414860338  0.21468074200674891  0.37263170059304684  1.0000
  H   H14       1.0  0.4304846557788551  0.1035071350634098  0.8698388449847698  1.0000
  H   H15       1.0  0.7025850489735603  0.20906220749020576  0.8892939537763596  1.0000
  H   H16       1.0  0.2263846474525053  0.22968291398137808  0.3960260236635804  1.0000
  S   S1        1.0  0.008941305801272392  0.9526177715742961  0.667365166824311  1.0000
  S   S2        1.0  0.2597843147814274  0.1668931506574154  0.8885982614010572  1.0000
  S   S3        1.0  0.4442896284162998  0.7821422852575779  0.7435572110116482  1.0000
  S   S4        1.0  0.8792128154309466  0.5845912143122405  0.001852642628364265  1.0000
  S   S5        1.0  0.9973082162905484  0.7062220906373113  0.9904563524760306  1.0000
  S   S6        1.0  0.6675297394394875  0.32075383327901363  0.6320177689194679  1.0000
  S   S7        1.0  0.3714398914016783  0.9337049075402319  0.5501075740903616  1.0000
  S   S8        1.0  0.1045148796401918  0.22282183822244406  0.9572502982337028  1.0000
data_image181
_chemical_formula_structural       H16S8
_chemical_formula_sum              "H16 S8"
_cell_length_a       8.83753075774048
_cell_length_b       8.83753075774048
_cell_length_c       8.83753075774048
_cell_angle_alpha    118.690318510586
_cell_angle_beta     118.69031851058598
_cell_angle_gamma    92.28380992055807

_space_group_name_H-M_alt    "P 1"
_space_group_IT_number       1

loop_
  _space_group_symop_operation_xyz
  'x, y, z'

loop_
  _atom_site_type_symbol
  _atom_site_label
  _atom_site_symmetry_multiplicity
  _atom_site_fract_x
  _atom_site_fract_y
  _atom_site_fract_z
  _atom_site_occupancy
  H   H1        1.0  0.7376475455239415  0.5864809011109173  0.39817141043022275  1.0000
  H   H2        1.0  0.29218317195773125  0.1390318050980568  0.16875616647303104  1.0000
  H   H3        1.0  0.03091379883699119  0.9017229755409062  0.12400713533861563  1.0000
  H   H4        1.0  0.4365719319321215  0.6952788193011656  0.9880873232614249  1.0000
  H   H5        1.0  0.6485912078642286  0.24090862151933834  0.9264688766561449  1.0000
  H   H6        1.0  0.7439872492104769  0.20136158913373947  0.4907975159585476  1.0000
  H   H7        1.0  0.6969433669000864  0.2975274397758767  0.6595966967288405  1.0000
  H   H8        1.0  0.04162349831312895  0.6097612648736686  0.16521178642869927  1.0000
  H   H9        1.0  0.18432661890983582  0.7080729047302157  0.29860164038836956  1.0000
  H   H10       1.0  0.3656783413607627  0.5432822005823255  0.16420593007933348  1.0000
  H   H11       1.0  0.019534939900040627  0.4839367710519582  0.26323279831558466  1.0000
  H   H12       1.0  0.995259371586144  0.5598944732919335  0.36361638456583023  1.0000
  H   H13       1.0  0.6830725800246  0.8134979330934584  0.784659399650991  1.0000
  H   H14       1.0  0.7329503269866109  0.7145718159154058  0.22534849867224693  1.0000
  H   H15       1.0  0.21967922151088715  0.19699569046497345  0.8000678103417158  1.0000
  H   H16       1.0  0.12347759776457679  0.21813908056356013  0.44887399347499013  1.0000
  S   S1        1.0  0.8266198630444705  0.7812843730207533  0.2049462483264506  1.0000
  S   S2        1.0  0.4149443469941616  0.456649761646986  0.13305862620472908  1.0000
  S   S3        1.0  0.13595945946872234  0.7403197791427374  0.11593728139996529  1.0000
  S   S4        1.0  0.19095365272369236  0.8212813984137028  0.8312383040320128  1.0000
  S   S5        1.0  0.7057884992100298  0.41678638430312276  0.005388943012803793  1.0000
  S   S6        1.0  0.4949324205517769  0.11779660731554031  0.1325166318565607  1.0000
  S   S7        1.0  0.5508143529295921  0.5295440349727869  0.7121570277959108  1.0000
  S   S8        1.0  0.48896900564432144  0.23001941689290106  0.44782571331597865  1.0000
data_image182
_chemical_formula_structural       H16S8
_chemical_formula_sum              "H16 S8"
_cell_length_a       8.83753075774048
_cell_length_b       8.83753075774048
_cell_length_c       8.83753075774048
_cell_angle_alpha    118.690318510586
_cell_angle_beta     118.69031851058598
_cell_angle_gamma    92.28380992055807

_space_group_name_H-M_alt    "P 1"
_space_group_IT_number       1

loop_
  _space_group_symop_operation_xyz
  'x, y, z'

loop_
  _atom_site_type_symbol
  _atom_site_label
  _atom_site_symmetry_multiplicity
  _atom_site_fract_x
  _atom_site_fract_y
  _atom_site_fract_z
  _atom_site_occupancy
  H   H1        1.0  0.20549484947696328  0.3538684179075062  0.8353657955303788  1.0000
  H   H2        1.0  0.3084757514297962  0.7807790376245975  0.44728549011051655  1.0000
  H   H3        1.0  0.6263027444947511  0.11589436791837215  0.05007711087819189  1.0000
  H   H4        1.0  0.8192153540439904  0.2189446227857843  0.3373178723268211  1.0000
  H   H5        1.0  0.4290842576447176  0.2851519793330226  0.551492172293365  1.0000
  H   H6        1.0  0.8135073240846395  0.0745634064078331  0.19473646208643913  1.0000
  H   H7        1.0  0.9604930798523128  0.9225907532963902  0.4619443784467876  1.0000
  H   H8        1.0  0.7607396766543388  0.5364868798060343  0.11212189387879334  1.0000
  H   H9        1.0  0.33774602925404906  0.9633851707912982  0.8386668600142002  1.0000
  H   H10       1.0  0.3974463426275179  0.18241250701248646  0.0710440130205825  1.0000
  H   H11       1.0  0.620809018611908  0.850028321845457  0.335867453366518  1.0000
  H   H12       1.0  0.6575515866279602  0.37485532090067863  0.9625111799687147  1.0000
  H   H13       1.0  0.8010461051017046  0.37687883502803743  0.7093433535774238  1.0000
  H   H14       1.0  0.8851346806623042  0.35951965395361185  0.5421760156750679  1.0000
  H   H15       1.0  0.08621904626488686  0.4351588673889637  0.06514134258031845  1.0000
  H   H16       1.0  0.2828830260259565  0.9106274403166026  0.6619139891117811  1.0000
  S   S1        1.0  0.7025426279287785  0.9193374733440578  0.7645007203100249  1.0000
  S   S2        1.0  0.5947188511490822  0.9126030541956425  0.5705359689891338  1.0000
  S   S3        1.0  0.8637911891564727  0.09757889620959759  0.2958592139184475  1.0000
  S   S4        1.0  0.7863257273565978  0.16393279726617038  0.38705791148822755  1.0000
  S   S5        1.0  0.7008419160265476  0.8738336951937526  0.05833778576925397  1.0000
  S   S6        1.0  0.619608860462904  0.6504844054579735  0.09068299271166325  1.0000
  S   S7        1.0  0.13792744185775518  0.3373745046555996  0.15544739551842213  1.0000
  S   S8        1.0  0.857064263895154  0.9928366972599179  0.03399544255807996  1.0000
data_image183
_chemical_formula_structural       H16S8
_chemical_formula_sum              "H16 S8"
_cell_length_a       8.83753075774048
_cell_length_b       8.83753075774048
_cell_length_c       8.83753075774048
_cell_angle_alpha    118.690318510586
_cell_angle_beta     118.69031851058598
_cell_angle_gamma    92.28380992055807

_space_group_name_H-M_alt    "P 1"
_space_group_IT_number       1

loop_
  _space_group_symop_operation_xyz
  'x, y, z'

loop_
  _atom_site_type_symbol
  _atom_site_label
  _atom_site_symmetry_multiplicity
  _atom_site_fract_x
  _atom_site_fract_y
  _atom_site_fract_z
  _atom_site_occupancy
  H   H1        1.0  0.8635711402166635  0.3571343198418617  0.2188361012376845  1.0000
  H   H2        1.0  0.6766056641936302  0.8267922215163708  0.6167731676250696  1.0000
  H   H3        1.0  0.06616880604997277  0.052477366756647825  0.38213542092125863  1.0000
  H   H4        1.0  0.5514461547136307  0.19392807129770517  0.7296481374651194  1.0000
  H   H5        1.0  0.1236179746738344  0.5836827598977834  0.7259768442600034  1.0000
  H   H6        1.0  0.5376756377518177  0.9626023732125759  0.32723579928278923  1.0000
  H   H7        1.0  0.502080034930259  0.21161869261413813  0.6523409981746227  1.0000
  H   H8        1.0  0.6582677392289042  0.5120795181719586  0.9500631504051853  1.0000
  H   H9        1.0  0.4609638159163296  0.5402001740294509  0.36296121403574944  1.0000
  H   H10       1.0  0.6648001847206615  0.7740744827315211  0.6164625978562981  1.0000
  H   H11       1.0  0.8549081906676292  0.3646466254722327  0.8751293634995818  1.0000
  H   H12       1.0  0.6708809854462743  0.06827683094888926  0.5440455283969641  1.0000
  H   H13       1.0  0.5036041815765202  0.8405587857123464  0.9055770714185201  1.0000
  H   H14       1.0  0.15727465506643057  0.9217974180355668  0.594354510307312  1.0000
  H   H15       1.0  0.04646916314959526  0.670256843790412  0.5643346067517996  1.0000
  H   H16       1.0  0.10205927141942084  0.8336717486381531  0.8135465988889337  1.0000
  S   S1        1.0  0.7456641718745232  0.5628354729851708  0.1311713489703834  1.0000
  S   S2        1.0  0.8918562680482864  0.1108052134513855  0.331319373100996  1.0000
  S   S3        1.0  0.5725688021630049  0.08490489609539509  0.434071309864521  1.0000
  S   S4        1.0  0.6607840635115281  0.6900347690097988  0.36521215026732534  1.0000
  S   S5        1.0  0.9684842997230589  0.7898961221799254  0.21087706228718162  1.0000
  S   S6        1.0  0.19158653914928436  0.06751298904418945  0.07950321212410927  1.0000
  S   S7        1.0  0.9962312001734972  0.9658957258798182  0.8881821935065091  1.0000
  S   S8        1.0  0.6239525428973138  0.413754993584007  0.6598781929351389  1.0000
data_image184
_chemical_formula_structural       H16S8
_chemical_formula_sum              "H16 S8"
_cell_length_a       8.83753075774048
_cell_length_b       8.83753075774048
_cell_length_c       8.83753075774048
_cell_angle_alpha    118.690318510586
_cell_angle_beta     118.69031851058598
_cell_angle_gamma    92.28380992055807

_space_group_name_H-M_alt    "P 1"
_space_group_IT_number       1

loop_
  _space_group_symop_operation_xyz
  'x, y, z'

loop_
  _atom_site_type_symbol
  _atom_site_label
  _atom_site_symmetry_multiplicity
  _atom_site_fract_x
  _atom_site_fract_y
  _atom_site_fract_z
  _atom_site_occupancy
  H   H1        1.0  0.849565219366923  0.6053714375011623  0.7243152158334851  1.0000
  H   H2        1.0  0.6742866858839989  0.9071564450860023  0.4219676498323679  1.0000
  H   H3        1.0  0.10501922620460391  0.815807921346277  0.6622327584773302  1.0000
  H   H4        1.0  0.21798035828396678  0.6370488157263026  0.8870925672817975  1.0000
  H   H5        1.0  0.8491302733200428  0.9676910354755819  0.8672480441746302  1.0000
  H   H6        1.0  0.1612783558666706  0.9077915772795677  0.007698684930801392  1.0000
  H   H7        1.0  0.9232500675134361  0.0672088545979932  0.7373342311475426  1.0000
  H   H8        1.0  0.21357537852600217  0.8721544544678181  0.38118695915909484  1.0000
  H   H9        1.0  0.6082245456054807  0.837334063166054  0.0657558124512434  1.0000
  H   H10       1.0  0.903474249294959  0.17000607587397099  0.9450793160358444  1.0000
  H   H11       1.0  0.8861807063221931  0.42396478401497006  0.5791088454425335  1.0000
  H   H12       1.0  0.7133040819317102  0.30321604292839766  0.1919009666889906  1.0000
  H   H13       1.0  0.9205105984583497  0.8611248156521469  0.9318500306108035  1.0000
  H   H14       1.0  0.043618577998131514  0.12320407573133707  0.4245830960571766  1.0000
  H   H15       1.0  0.7945525385439396  0.6398684233427048  0.25733358040452003  1.0000
  H   H16       1.0  0.11882377008441836  0.5146821686066687  0.3263137750327587  1.0000
  S   S1        1.0  0.9875207873992622  0.43377024948131293  0.05608494463376701  1.0000
  S   S2        1.0  0.3022342287003994  0.394270908087492  0.6809986513108015  1.0000
  S   S3        1.0  0.960975281894207  0.032664550468325615  0.2990555241703987  1.0000
  S   S4        1.0  0.23075436532963067  0.4718519707676023  0.5337474929401651  1.0000
  S   S5        1.0  0.8472915426827967  0.36928965826518834  0.07009725971147418  1.0000
  S   S6        1.0  0.416861180216074  0.34477896615862846  0.6049225982278585  1.0000
  S   S7        1.0  0.9746013139374554  0.09909354150295258  0.8254040805622935  1.0000
  S   S8        1.0  0.08589933160692453  0.9989207135513425  0.816205473151058  1.0000
data_image185
_chemical_formula_structural       H16S8
_chemical_formula_sum              "H16 S8"
_cell_length_a       8.83753075774048
_cell_length_b       8.83753075774048
_cell_length_c       8.83753075774048
_cell_angle_alpha    118.690318510586
_cell_angle_beta     118.69031851058598
_cell_angle_gamma    92.28380992055807

_space_group_name_H-M_alt    "P 1"
_space_group_IT_number       1

loop_
  _space_group_symop_operation_xyz
  'x, y, z'

loop_
  _atom_site_type_symbol
  _atom_site_label
  _atom_site_symmetry_multiplicity
  _atom_site_fract_x
  _atom_site_fract_y
  _atom_site_fract_z
  _atom_site_occupancy
  H   H1        1.0  0.8354786068666726  0.16795157035812736  0.7483058697544038  1.0000
  H   H2        1.0  0.33022814989089966  0.47619742527604103  0.032605888321995735  1.0000
  H   H3        1.0  0.6710054238792509  0.12163970433175564  0.45655560033628717  1.0000
  H   H4        1.0  0.594733904581517  0.0064291562885046005  0.8916603599209338  1.0000
  H   H5        1.0  0.8897778120299336  0.6889641265152022  0.9272109421144705  1.0000
  H   H6        1.0  0.32988592982292175  0.9351728297770023  0.08961525559425354  1.0000
  H   H7        1.0  0.709423509426415  0.8787129428237677  0.46678683860227466  1.0000
  H   H8        1.0  0.8172067520208657  0.239807064877823  0.9520590601023287  1.0000
  H   H9        1.0  0.6007087370380759  0.26340047392295673  0.6507881991565228  1.0000
  H   H10       1.0  0.8403766079572961  0.827741808257997  0.278310141293332  1.0000
  H   H11       1.0  0.9124310687184334  0.8008038904517889  0.4068168615922332  1.0000
  H   H12       1.0  0.44273840077221394  0.5338914729654789  0.23590150848031044  1.0000
  H   H13       1.0  0.49819094175472856  0.43973551969975233  0.9039078293717466  1.0000
  H   H14       1.0  0.5634332071058452  0.4443559320643544  0.9216299168765545  1.0000
  H   H15       1.0  0.5991898849606514  0.9418070111423731  0.5034940354526043  1.0000
  H   H16       1.0  0.5746656415285543  0.7006500936113298  0.028403852600604296  1.0000
  S   S1        1.0  0.10156482039019465  0.18928987998515368  0.2636469770804979  1.0000
  S   S2        1.0  0.18646952137351036  0.8050838336348534  0.5806241985410452  1.0000
  S   S3        1.0  0.26882770378142595  0.9133457746356726  0.8830258697271347  1.0000
  S   S4        1.0  0.8681999598629773  0.37551072135102004  0.6174024138599634  1.0000
  S   S5        1.0  0.739489498315379  0.1376193086616695  0.15462179901078343  1.0000
  S   S6        1.0  0.45353756099939346  0.4393313452601433  0.8330799695104361  1.0000
  S   S7        1.0  0.5202169478870928  0.3337196419015527  0.9714287715032697  1.0000
  S   S8        1.0  0.12065596552565694  0.538995455019176  0.4977175546810031  1.0000
data_image186
_chemical_formula_structural       H16S8
_chemical_formula_sum              "H16 S8"
_cell_length_a       8.83753075774048
_cell_length_b       8.83753075774048
_cell_length_c       8.83753075774048
_cell_angle_alpha    118.690318510586
_cell_angle_beta     118.69031851058598
_cell_angle_gamma    92.28380992055807

_space_group_name_H-M_alt    "P 1"
_space_group_IT_number       1

loop_
  _space_group_symop_operation_xyz
  'x, y, z'

loop_
  _atom_site_type_symbol
  _atom_site_label
  _atom_site_symmetry_multiplicity
  _atom_site_fract_x
  _atom_site_fract_y
  _atom_site_fract_z
  _atom_site_occupancy
  H   H1        1.0  0.7807000065222383  0.07071174122393131  0.8689849320799112  1.0000
  H   H2        1.0  0.0544520728290081  0.022611286491155624  0.6848864983767271  1.0000
  H   H3        1.0  0.4261196991428733  0.2922154348343611  0.497818830946926  1.0000
  H   H4        1.0  0.05341166723519564  0.6636330842738971  0.018319087801501155  1.0000
  H   H5        1.0  0.46201796212699264  0.027470641944091767  0.20085186196956784  1.0000
  H   H6        1.0  0.9715727996081114  0.6250362060964108  0.27133581787347794  1.0000
  H   H7        1.0  0.8621030277572572  0.3179153456585482  0.049101567128673196  1.0000
  H   H8        1.0  0.7075833389535546  0.265085811028257  0.47720065782777965  1.0000
  H   H9        1.0  0.15331159392371774  0.06002194667235017  0.9197078049182892  1.0000
  H   H10       1.0  0.2507378221489489  0.9679698757827282  0.05931946367491037  1.0000
  H   H11       1.0  0.553700290620327  0.67316023260355  0.7484879326075315  1.0000
  H   H12       1.0  0.9243977107107639  0.04910685867071152  0.8535587042570114  1.0000
  H   H13       1.0  0.8169997851364315  0.6698670568875968  0.3685749617870897  1.0000
  H   H14       1.0  0.06343938317149878  0.7650221344083548  0.7894813977181911  1.0000
  H   H15       1.0  0.033300068229436874  0.09336193650960922  0.6603602729737759  1.0000
  H   H16       1.0  0.023797377129085362  0.943353203125298  0.14385479502379894  1.0000
  S   S1        1.0  0.9313790870364755  0.3394355872296728  0.1864441178040579  1.0000
  S   S2        1.0  0.7008794099092484  0.5153199806809425  0.6144342515617609  1.0000
  S   S3        1.0  0.3435005974024534  0.24795215018093586  0.7942022681236267  1.0000
  S   S4        1.0  0.1107557809446007  0.6580457511590794  0.707439580350183  1.0000
  S   S5        1.0  0.47535383026115596  0.36439238931052387  0.792363082524389  1.0000
  S   S6        1.0  0.7989473827183247  0.5673142932355404  0.22271938249468803  1.0000
  S   S7        1.0  0.04403802566230297  0.48696538293734193  0.6673095328733325  1.0000
  S   S8        1.0  0.6970711234025657  0.5845266967080534  0.9932976311538368  1.0000
data_image187
_chemical_formula_structural       H16S8
_chemical_formula_sum              "H16 S8"
_cell_length_a       8.83753075774048
_cell_length_b       8.83753075774048
_cell_length_c       8.83753075774048
_cell_angle_alpha    118.690318510586
_cell_angle_beta     118.69031851058598
_cell_angle_gamma    92.28380992055807

_space_group_name_H-M_alt    "P 1"
_space_group_IT_number       1

loop_
  _space_group_symop_operation_xyz
  'x, y, z'

loop_
  _atom_site_type_symbol
  _atom_site_label
  _atom_site_symmetry_multiplicity
  _atom_site_fract_x
  _atom_site_fract_y
  _atom_site_fract_z
  _atom_site_occupancy
  H   H1        1.0  0.3477189354598522  0.7228457983583212  0.2909104749560356  1.0000
  H   H2        1.0  0.2149445191025734  0.9774723388254642  0.4949142802506685  1.0000
  H   H3        1.0  0.2917318334802985  0.5582280186936259  0.5782925693201832  1.0000
  H   H4        1.0  0.6248033060692251  0.3517801836133003  0.24085016758181155  1.0000
  H   H5        1.0  0.7963456474244595  0.2744331298617908  0.9375685444101691  1.0000
  H   H6        1.0  0.9244430158287287  0.7618980444967747  0.7436711862683296  1.0000
  H   H7        1.0  0.21850431384518743  0.7088449385482818  0.8034660711418837  1.0000
  H   H8        1.0  0.5990723231807351  0.13881509634666145  0.482095975195989  1.0000
  H   H9        1.0  0.17148200003430247  0.9758369898190722  0.5607286989688873  1.0000
  H   H10       1.0  0.12353451014496386  0.7413645097985864  0.06782070291228592  1.0000
  H   H11       1.0  0.4508277401328087  0.46335510024800897  0.701423236168921  1.0000
  H   H12       1.0  0.08040266670286655  0.7825722983106971  0.9088307581841946  1.0000
  H   H13       1.0  0.5694858455099165  0.7660297125112265  0.8545077487360686  1.0000
  H   H14       1.0  0.15176176326349378  0.656238378956914  0.5750333704054356  1.0000
  H   H15       1.0  0.11530541628599167  0.7507842741906643  0.5348036997020245  1.0000
  H   H16       1.0  0.015399913187138736  0.49331847531720996  0.35493521858006716  1.0000
  S   S1        1.0  0.5032386463135481  0.6421377712977119  0.8821815209812485  1.0000
  S   S2        1.0  0.6304503008723259  0.23428745567798615  0.29583381302654743  1.0000
  S   S3        1.0  0.2930133044719696  0.5227598454803228  0.47447649016976357  1.0000
  S   S4        1.0  0.9358266470953822  0.6837605485925451  0.1838914054678753  1.0000
  S   S5        1.0  0.31461538444273174  0.4275185524020344  0.9154525799676776  1.0000
  S   S6        1.0  0.529406301677227  0.24731915071606636  0.42178127728402615  1.0000
  S   S7        1.0  0.6519167507067323  0.18677639868110418  0.9122015777975321  1.0000
  S   S8        1.0  0.6737331682816148  0.8589616378303617  0.4563723294995725  1.0000
data_image188
_chemical_formula_structural       H16S8
_chemical_formula_sum              "H16 S8"
_cell_length_a       8.83753075774048
_cell_length_b       8.83753075774048
_cell_length_c       8.83753075774048
_cell_angle_alpha    118.690318510586
_cell_angle_beta     118.69031851058598
_cell_angle_gamma    92.28380992055807

_space_group_name_H-M_alt    "P 1"
_space_group_IT_number       1

loop_
  _space_group_symop_operation_xyz
  'x, y, z'

loop_
  _atom_site_type_symbol
  _atom_site_label
  _atom_site_symmetry_multiplicity
  _atom_site_fract_x
  _atom_site_fract_y
  _atom_site_fract_z
  _atom_site_occupancy
  H   H1        1.0  0.5980650810524821  0.6374995489604771  0.5458101488184184  1.0000
  H   H2        1.0  0.16192194446921349  0.9852216951549053  0.526973333209753  1.0000
  H   H3        1.0  0.5377047937363386  0.5246778703294694  0.5255806522327475  1.0000
  H   H4        1.0  0.7621623920276761  0.36195085290819407  0.34324550861492753  1.0000
  H   H5        1.0  0.18153655994683504  0.5867029490182176  0.9436041680164635  1.0000
  H   H6        1.0  0.5564562026411295  0.6495679840445518  0.6472921296954155  1.0000
  H   H7        1.0  0.6209048479795456  0.35851784492842853  0.18986941152252257  1.0000
  H   H8        1.0  0.8129043872468174  0.171302325790748  0.5788251681951806  1.0000
  H   H9        1.0  0.32509257178753614  0.28403098706621677  0.8608972635120153  1.0000
  H   H10       1.0  0.4557886539842002  0.33652909845113754  0.9056207726243883  1.0000
  H   H11       1.0  0.30985693261027336  0.32604959909804165  0.5238426830619574  1.0000
  H   H12       1.0  0.5331334043294191  0.15414720866829157  0.1032375767827034  1.0000
  H   H13       1.0  0.030917169991880655  0.23102715611457825  0.933289177599363  1.0000
  H   H14       1.0  0.808009855914861  0.06870218086987734  0.5211886130273342  1.0000
  H   H15       1.0  0.6666867733001709  0.23962169885635376  0.08385387808084488  1.0000
  H   H16       1.0  0.23541124211624265  0.33211506996303797  0.028241919353604317  1.0000
  S   S1        1.0  0.0818489552475512  0.13084507238818333  0.8949425575556234  1.0000
  S   S2        1.0  0.10824492201209068  0.9888365715742111  0.8885571956634521  1.0000
  S   S3        1.0  0.0034951437264680862  0.9991569481790066  0.7525644525885582  1.0000
  S   S4        1.0  0.05452772579155862  0.6899705433752388  0.12454309093300253  1.0000
  S   S5        1.0  0.7605094504542649  0.22028474416583776  0.7419870649464428  1.0000
  S   S6        1.0  0.5902964361011982  0.14294536225497723  0.9610647149384022  1.0000
  S   S7        1.0  0.828628605697304  0.3423603596165776  0.977022482547909  1.0000
  S   S8        1.0  0.2737269839271903  0.30662467307411134  0.12572471937164664  1.0000
data_image189
_chemical_formula_structural       H16S8
_chemical_formula_sum              "H16 S8"
_cell_length_a       8.83753075774048
_cell_length_b       8.83753075774048
_cell_length_c       8.83753075774048
_cell_angle_alpha    118.690318510586
_cell_angle_beta     118.69031851058598
_cell_angle_gamma    92.28380992055807

_space_group_name_H-M_alt    "P 1"
_space_group_IT_number       1

loop_
  _space_group_symop_operation_xyz
  'x, y, z'

loop_
  _atom_site_type_symbol
  _atom_site_label
  _atom_site_symmetry_multiplicity
  _atom_site_fract_x
  _atom_site_fract_y
  _atom_site_fract_z
  _atom_site_occupancy
  H   H1        1.0  0.3938521869131364  0.43005807348527014  0.5075382152572274  1.0000
  H   H2        1.0  0.0047620199620723724  0.6404086463153362  0.8737845495343208  1.0000
  H   H3        1.0  0.8986210147850215  0.07605210784822702  0.010412257630378008  1.0000
  H   H4        1.0  0.7973520755767822  0.16161418799310923  0.3873195513151586  1.0000
  H   H5        1.0  0.5553041030652821  0.4271506372024305  0.45438965409994125  1.0000
  H   H6        1.0  0.40321522764861584  0.3265482857823372  0.8154903911054134  1.0000
  H   H7        1.0  0.9243334974162281  0.22863944503478706  0.8998636852484196  1.0000
  H   H8        1.0  0.8977579199708998  0.08058572909794748  0.34350599197205156  1.0000
  H   H9        1.0  0.5080010420642793  0.805700232333038  0.8561149034649134  1.0000
  H   H10       1.0  0.06340420467313379  0.8520409390330315  0.14034518913831562  1.0000
  H   H11       1.0  0.2368864305317402  0.909381814301014  0.8833789173513651  1.0000
  H   H12       1.0  0.7320880256593227  0.01627932023257017  0.8350532818585634  1.0000
  H   H13       1.0  0.18013644963502884  0.2679955381900072  0.829999131790828  1.0000
  H   H14       1.0  0.7543855621479452  0.7898770468309522  0.0347566194832325  1.0000
  H   H15       1.0  0.28654730692505836  0.835425179451704  0.758510984480381  1.0000
  H   H16       1.0  0.6508964678505436  0.734083054587245  0.9283320037648082  1.0000
  S   S1        1.0  0.860840437700972  0.09469757950864732  0.021904987806919962  1.0000
  S   S2        1.0  0.6010675430297852  0.12114575877785683  0.6854683235287666  1.0000
  S   S3        1.0  0.7118552513420582  0.9913494419306517  0.694960456341505  1.0000
  S   S4        1.0  0.12487242551287636  0.3109041318530217  0.45025002560578287  1.0000
  S   S5        1.0  0.4889869522303343  0.08704355102963746  0.48557706736028194  1.0000
  S   S6        1.0  0.08537669479846954  0.7220467682927847  0.21403720043599606  1.0000
  S   S7        1.0  0.008234074339270592  0.6271030213683844  0.523754711728543  1.0000
  S   S8        1.0  0.03821018245071173  0.5851928470656276  0.2529310449026525  1.0000
data_image190
_chemical_formula_structural       H16S8
_chemical_formula_sum              "H16 S8"
_cell_length_a       8.83753075774048
_cell_length_b       8.83753075774048
_cell_length_c       8.83753075774048
_cell_angle_alpha    118.690318510586
_cell_angle_beta     118.69031851058598
_cell_angle_gamma    92.28380992055807

_space_group_name_H-M_alt    "P 1"
_space_group_IT_number       1

loop_
  _space_group_symop_operation_xyz
  'x, y, z'

loop_
  _atom_site_type_symbol
  _atom_site_label
  _atom_site_symmetry_multiplicity
  _atom_site_fract_x
  _atom_site_fract_y
  _atom_site_fract_z
  _atom_site_occupancy
  H   H1        1.0  0.6477233792975312  0.955999210011214  0.9736613077111542  1.0000
  H   H2        1.0  0.529428992420435  0.9850614815950394  0.09320061653852463  1.0000
  H   H3        1.0  0.6325305050704628  0.39700310584157705  0.7027650056406856  1.0000
  H   H4        1.0  0.7658183467574418  0.8764347831020132  0.6229478395543993  1.0000
  H   H5        1.0  0.16937932721339166  0.29111733293393627  0.9084104741923511  1.0000
  H   H6        1.0  0.7315185349434614  0.7255370579659939  0.8696921691298485  1.0000
  H   H7        1.0  0.6645187400281429  0.08641205495223403  0.4306252487003803  1.0000
  H   H8        1.0  0.3576703639701009  0.17323089088313282  0.6314219608902931  1.0000
  H   H9        1.0  0.43077325262129307  0.12163592578144744  0.9207550920546055  1.0000
  H   H10       1.0  0.4510290109901689  0.8779304809868336  0.38644942070823163  1.0000
  H   H11       1.0  0.8105997890233994  0.27611482283100486  0.41353285778313875  1.0000
  H   H12       1.0  0.491635181941092  0.5984071409329772  0.3138646986335516  1.0000
  H   H13       1.0  0.33989248517900705  0.1981997904367745  0.31514701730338857  1.0000
  H   H14       1.0  0.024518477730453014  0.9629790876060724  0.5442060753703117  1.0000
  H   H15       1.0  0.022221628576517105  0.474590128287673  0.20544051378965378  1.0000
  H   H16       1.0  0.43677390657830983  0.345634370110929  0.5791250262409449  1.0000
  S   S1        1.0  0.5242983361240476  0.1284977972973138  0.6422781033616047  1.0000
  S   S2        1.0  0.5589773394167423  0.7475562766194344  0.2227238230407238  1.0000
  S   S3        1.0  0.0005733976140618324  0.5180836152285337  0.5990815982222557  1.0000
  S   S4        1.0  0.7847180055105127  0.2931585011538118  0.5087994498899207  1.0000
  S   S5        1.0  0.06949821137823164  0.8346334910020232  0.5884003508836031  1.0000
  S   S6        1.0  0.41315117105841637  0.5724031999707222  0.34137499146163464  1.0000
  S   S7        1.0  0.7150581679306924  0.3197504626587033  0.9500002926215529  1.0000
  S   S8        1.0  0.09739727526903152  0.37933900067582726  0.20224553323350847  1.0000
data_image191
_chemical_formula_structural       H16S8
_chemical_formula_sum              "H16 S8"
_cell_length_a       8.83753075774048
_cell_length_b       8.83753075774048
_cell_length_c       8.83753075774048
_cell_angle_alpha    118.690318510586
_cell_angle_beta     118.69031851058598
_cell_angle_gamma    92.28380992055807

_space_group_name_H-M_alt    "P 1"
_space_group_IT_number       1

loop_
  _space_group_symop_operation_xyz
  'x, y, z'

loop_
  _atom_site_type_symbol
  _atom_site_label
  _atom_site_symmetry_multiplicity
  _atom_site_fract_x
  _atom_site_fract_y
  _atom_site_fract_z
  _atom_site_occupancy
  H   H1        1.0  0.6006293824175373  0.05112217296846211  0.19105445826426148  1.0000
  H   H2        1.0  0.44022634625434875  0.06598727032542229  0.6117945406585932  1.0000
  H   H3        1.0  0.1838295196648687  0.8778219795785844  0.0023394969175569713  1.0000
  H   H4        1.0  0.7150073884986341  0.10829669807571918  0.3300094101577997  1.0000
  H   H5        1.0  0.0041374461725354195  0.019526692747604102  0.2470917769242078  1.0000
  H   H6        1.0  0.3394718524068594  0.3138014189898968  0.9957305490970612  1.0000
  H   H7        1.0  0.9558205078355968  0.2795726505573839  0.21157968748593703  1.0000
  H   H8        1.0  0.4649332985281944  0.8369236853905022  0.5935142630478367  1.0000
  H   H9        1.0  0.778481783811003  0.02548404224216938  0.7409519087523222  1.0000
  H   H10       1.0  0.30091051885392517  0.11933847516775131  0.8192744932603091  1.0000
  H   H11       1.0  0.7586867474019527  0.8426453524734825  0.4757192647084594  1.0000
  H   H12       1.0  0.11379655543714762  0.10756270866841078  0.42580349929630756  1.0000
  H   H13       1.0  0.03308438370004296  0.030088378814980388  0.17654052504803985  1.0000
  H   H14       1.0  0.7029104512184858  0.9243754893541336  0.9785646013915539  1.0000
  H   H15       1.0  0.24225492030382156  0.5106294993311167  0.9553421586751938  1.0000
  H   H16       1.0  0.8792138919234276  0.39972906094044447  0.6058140248060226  1.0000
  S   S1        1.0  0.6535704506095499  0.41829848784254864  0.6551846831862349  1.0000
  S   S2        1.0  0.041051607578992844  0.21335069090127945  0.14339415170252323  1.0000
  S   S3        1.0  0.6739693945273757  0.061844805255532265  0.36082349717617035  1.0000
  S   S4        1.0  0.8745706899790093  0.8308305344544351  0.5431901533156633  1.0000
  S   S5        1.0  0.035345896845683455  0.3099985783919692  0.09162914613261819  1.0000
  S   S6        1.0  0.4716016948223114  0.7958880327641964  0.002400057390332222  1.0000
  S   S7        1.0  0.948864022269845  0.3795002105180174  0.7543465658091009  1.0000
  S   S8        1.0  0.1786406827159226  0.7949340671766549  0.8761534192599356  1.0000
data_image192
_chemical_formula_structural       H16S8
_chemical_formula_sum              "H16 S8"
_cell_length_a       8.83753075774048
_cell_length_b       8.83753075774048
_cell_length_c       8.83753075774048
_cell_angle_alpha    118.690318510586
_cell_angle_beta     118.69031851058598
_cell_angle_gamma    92.28380992055807

_space_group_name_H-M_alt    "P 1"
_space_group_IT_number       1

loop_
  _space_group_symop_operation_xyz
  'x, y, z'

loop_
  _atom_site_type_symbol
  _atom_site_label
  _atom_site_symmetry_multiplicity
  _atom_site_fract_x
  _atom_site_fract_y
  _atom_site_fract_z
  _atom_site_occupancy
  H   H1        1.0  0.9175347559794318  0.947795441839844  0.03899359470233321  1.0000
  H   H2        1.0  0.4481554515659809  0.08777330815792084  0.4547023754566908  1.0000
  H   H3        1.0  0.47420232836157084  0.6134667890146375  0.3403624055790715  1.0000
  H   H4        1.0  0.03978860890492797  0.01854879187885672  0.9517515455372632  1.0000
  H   H5        1.0  0.3715040214592591  0.8183248037239537  0.767578462138772  1.0000
  H   H6        1.0  0.16257053799927235  0.32337193191051483  0.5025055035948753  1.0000
  H   H7        1.0  0.7185078812763095  0.8925717398524284  0.69102654280141  1.0000
  H   H8        1.0  0.527226381469518  0.0798526699654758  0.04659575468394905  1.0000
  H   H9        1.0  0.9969964697957039  0.8682207291640225  0.5235713627189398  1.0000
  H   H10       1.0  0.3520007545594126  0.8507943162694573  0.2117214681347832  1.0000
  H   H11       1.0  0.9314565360546112  0.5740784311201423  0.35210828110575676  1.0000
  H   H12       1.0  0.29553941171616316  0.8793878136202693  0.13437092676758766  1.0000
  H   H13       1.0  0.016139522660523653  0.2171214409172535  0.6537055254448205  1.0000
  H   H14       1.0  0.362720912322402  0.3147918740287423  0.8406482972204685  1.0000
  H   H15       1.0  0.6849704347550869  0.6784796882420778  0.8162773698568344  1.0000
  H   H16       1.0  0.9420978426933289  0.9325601356104016  0.7239882498979568  1.0000
  S   S1        1.0  0.23653867118991911  0.08332917263032869  0.21593687089625746  1.0000
  S   S2        1.0  0.4617246873676777  0.617815800011158  0.5233447439968586  1.0000
  S   S3        1.0  0.3392179450020194  0.18528136610984802  0.4721130356192589  1.0000
  S   S4        1.0  0.47576892998768017  0.3583607452455908  0.5252294312231243  1.0000
  S   S5        1.0  0.48242877167649567  0.6342128335963935  0.8650300973095  1.0000
  S   S6        1.0  0.27994049713015556  0.1731776688247919  0.3410490769892931  1.0000
  S   S7        1.0  0.2499740761704743  0.6018221250269562  0.453466156963259  1.0000
  S   S8        1.0  0.5301022217608988  0.12917381804436445  0.7467835631687194  1.0000
data_image193
_chemical_formula_structural       H16S8
_chemical_formula_sum              "H16 S8"
_cell_length_a       8.83753075774048
_cell_length_b       8.83753075774048
_cell_length_c       8.83753075774048
_cell_angle_alpha    118.690318510586
_cell_angle_beta     118.69031851058598
_cell_angle_gamma    92.28380992055807

_space_group_name_H-M_alt    "P 1"
_space_group_IT_number       1

loop_
  _space_group_symop_operation_xyz
  'x, y, z'

loop_
  _atom_site_type_symbol
  _atom_site_label
  _atom_site_symmetry_multiplicity
  _atom_site_fract_x
  _atom_site_fract_y
  _atom_site_fract_z
  _atom_site_occupancy
  H   H1        1.0  0.4267118706193287  0.5322043090127409  0.3879678617231548  1.0000
  H   H2        1.0  0.017528340220451355  0.19608650729060173  0.7987001482397318  1.0000
  H   H3        1.0  0.17037652526050806  0.431349010206759  0.16034889151342213  1.0000
  H   H4        1.0  0.7310428782366216  0.36072653415612876  0.7250969239976257  1.0000
  H   H5        1.0  0.02437534334603697  0.5835561687126756  0.0601256201043725  1.0000
  H   H6        1.0  0.07038436830043793  0.29931482672691345  0.44945577532052994  1.0000
  H   H7        1.0  0.7741611218079925  0.5356341656297445  0.5810186720336787  1.0000
  H   H8        1.0  0.3257395839318633  0.5936172783840448  0.4788387023145333  1.0000
  H   H9        1.0  0.9870685073547065  0.8582264765864238  0.7841380089521408  1.0000
  H   H10       1.0  0.5640360906836577  0.24266983196139336  0.8754770240047947  1.0000
  H   H11       1.0  0.7504586204886436  0.9231843561865389  0.2572439890354872  1.0000
  H   H12       1.0  0.07466969825327396  0.7281964169815183  0.08244624547660351  1.0000
  H   H13       1.0  0.8521730280481279  0.9274666230194271  0.37496977346017957  1.0000
  H   H14       1.0  0.24954280350357294  0.5300600919872522  0.3906417787075043  1.0000
  H   H15       1.0  0.8406077511608601  0.24907000362873077  0.7024067267775536  1.0000
  H   H16       1.0  0.4202268458902836  0.05424794368445873  0.5000101402401924  1.0000
  S   S1        1.0  0.08492747927084565  0.724205982813146  0.2726412525807973  1.0000
  S   S2        1.0  0.07160250097513199  0.23316321521997452  0.10521016269922256  1.0000
  S   S3        1.0  0.4928705748170614  0.6941524017602205  0.5670704878866673  1.0000
  S   S4        1.0  0.5485647842288017  0.9527027010917664  0.9187249783426523  1.0000
  S   S5        1.0  0.558542984072119  0.21297267032787204  0.5930161708965898  1.0000
  S   S6        1.0  0.8672704063355923  0.36911218240857124  0.7914085797965527  1.0000
  S   S7        1.0  0.03942041750997305  0.5070084361359477  0.021331606432795525  1.0000
  S   S8        1.0  0.14716783072799444  0.5432591736316681  0.7754228059202433  1.0000
data_image194
_chemical_formula_structural       H16S8
_chemical_formula_sum              "H16 S8"
_cell_length_a       8.83753075774048
_cell_length_b       8.83753075774048
_cell_length_c       8.83753075774048
_cell_angle_alpha    118.690318510586
_cell_angle_beta     118.69031851058598
_cell_angle_gamma    92.28380992055807

_space_group_name_H-M_alt    "P 1"
_space_group_IT_number       1

loop_
  _space_group_symop_operation_xyz
  'x, y, z'

loop_
  _atom_site_type_symbol
  _atom_site_label
  _atom_site_symmetry_multiplicity
  _atom_site_fract_x
  _atom_site_fract_y
  _atom_site_fract_z
  _atom_site_occupancy
  H   H1        1.0  0.3211159593774937  0.30409016250632703  0.2940360619686544  1.0000
  H   H2        1.0  0.15624058991670609  0.4188834838569164  0.1819928176701069  1.0000
  H   H3        1.0  0.7693648801650852  0.32918523577973247  0.22811081499094144  1.0000
  H   H4        1.0  0.33572176191955805  0.23245371133089066  0.6042403224855661  1.0000
  H   H5        1.0  0.025530317798256874  0.5069916436623316  0.6312374749686569  1.0000
  H   H6        1.0  0.7057153712958097  0.49021783098578453  0.04488435760140419  1.0000
  H   H7        1.0  0.6331691518425941  0.5003581114578992  0.34122228872729465  1.0000
  H   H8        1.0  0.11446771398186684  0.5755925860721618  0.8215744734043255  1.0000
  H   H9        1.0  0.8167434260249138  0.15127361888244195  0.38146454654634  1.0000
  H   H10       1.0  0.4636003386694938  0.21351443510502577  0.25170824537053704  1.0000
  H   H11       1.0  0.5051474496722221  0.2322829549666494  0.6353687150403857  1.0000
  H   H12       1.0  0.04657045193016529  0.4453119970858097  0.6446745563298464  1.0000
  H   H13       1.0  0.4754779380746186  0.7567135873250663  0.9744008318521082  1.0000
  H   H14       1.0  0.5742980041541159  0.54593968950212  0.07250945270061493  1.0000
  H   H15       1.0  0.06276729702949524  0.08243264257907867  0.24806303530931473  1.0000
  H   H16       1.0  0.37288570776581764  0.12591662630438805  0.3824605494737625  1.0000
  S   S1        1.0  0.7207024060189724  0.013087845756672323  0.9232690421340521  1.0000
  S   S2        1.0  0.5729368962347507  0.2784092575311661  0.6260691825300455  1.0000
  S   S3        1.0  0.6635239711031318  0.7130958084017038  0.6522548459470272  1.0000
  S   S4        1.0  0.1783282031537965  0.5296933678910136  0.3158289685379714  1.0000
  S   S5        1.0  0.11587180336937308  0.14713053940795362  0.7342084771953523  1.0000
  S   S6        1.0  0.7658080831170082  0.19068880565464497  0.8420784994959831  1.0000
  S   S7        1.0  0.5601318785920739  0.26418851246125996  0.6618079412728548  1.0000
  S   S8        1.0  0.2027034554630518  0.9323299983516335  0.5437099027913064  1.0000
data_image195
_chemical_formula_structural       H16S8
_chemical_formula_sum              "H16 S8"
_cell_length_a       8.83753075774048
_cell_length_b       8.83753075774048
_cell_length_c       8.83753075774048
_cell_angle_alpha    118.690318510586
_cell_angle_beta     118.69031851058598
_cell_angle_gamma    92.28380992055807

_space_group_name_H-M_alt    "P 1"
_space_group_IT_number       1

loop_
  _space_group_symop_operation_xyz
  'x, y, z'

loop_
  _atom_site_type_symbol
  _atom_site_label
  _atom_site_symmetry_multiplicity
  _atom_site_fract_x
  _atom_site_fract_y
  _atom_site_fract_z
  _atom_site_occupancy
  H   H1        1.0  0.9232717746344861  0.059063699562102556  0.9957918371073902  1.0000
  H   H2        1.0  0.3808961361646652  0.5267494767904282  0.5568082649260759  1.0000
  H   H3        1.0  0.66340765170753  0.18306468101218343  0.22967892879387364  1.0000
  H   H4        1.0  0.9935332587920129  0.7323026324156672  0.045063208090141416  1.0000
  H   H5        1.0  0.15283581905532628  0.6104946644627489  0.6088080182671547  1.0000
  H   H6        1.0  0.7357847522944212  0.6067328043282032  0.6446130909025669  1.0000
  H   H7        1.0  0.35668345587328076  0.568806164432317  0.963424249086529  1.0000
  H   H8        1.0  0.5143323997035623  0.07820565602742136  0.2893802688922733  1.0000
  H   H9        1.0  0.26546749472618103  0.555437426577555  0.16426960565149784  1.0000
  H   H10       1.0  0.6919453230802901  0.4803210701793432  0.2924948965664953  1.0000
  H   H11       1.0  0.7779634799808264  0.5272538992576301  0.924119315110147  1.0000
  H   H12       1.0  0.0776765551418066  0.22433769050985575  0.7716631013900042  1.0000
  H   H13       1.0  0.39060042006894946  0.7373787879478186  0.4714289349503815  1.0000
  H   H14       1.0  0.8050797744654119  0.3926505660638213  0.8773194439709187  1.0000
  H   H15       1.0  0.5970408394932747  0.02541111223399639  0.6029867976903915  1.0000
  H   H16       1.0  0.9754354767501354  0.8795654140412807  0.447500329464674  1.0000
  S   S1        1.0  0.6368792885914445  0.9640565286390483  0.5655428067257162  1.0000
  S   S2        1.0  0.9732325151562691  0.2530440278351307  0.4946378320455551  1.0000
  S   S3        1.0  0.7159280925989151  0.18293816968798637  0.523106824606657  1.0000
  S   S4        1.0  0.23973284661769867  0.35217683855444193  0.08320777758490294  1.0000
  S   S5        1.0  0.20396366203203797  0.17277833889238536  0.7116153826937079  1.0000
  S   S6        1.0  0.8776438869535923  0.5201534815132618  0.6088373623788357  1.0000
  S   S7        1.0  0.4894364862702787  0.46728558163158596  0.14767819503322244  1.0000
  S   S8        1.0  0.40982369845733047  0.3853191905654967  0.7124998972285539  1.0000
data_image196
_chemical_formula_structural       H16S8
_chemical_formula_sum              "H16 S8"
_cell_length_a       8.83753075774048
_cell_length_b       8.83753075774048
_cell_length_c       8.83753075774048
_cell_angle_alpha    118.690318510586
_cell_angle_beta     118.69031851058598
_cell_angle_gamma    92.28380992055807

_space_group_name_H-M_alt    "P 1"
_space_group_IT_number       1

loop_
  _space_group_symop_operation_xyz
  'x, y, z'

loop_
  _atom_site_type_symbol
  _atom_site_label
  _atom_site_symmetry_multiplicity
  _atom_site_fract_x
  _atom_site_fract_y
  _atom_site_fract_z
  _atom_site_occupancy
  H   H1        1.0  0.06403087911894545  0.7219499526545405  0.9321410837583244  1.0000
  H   H2        1.0  0.6546242162585258  0.11005470901727676  0.556630140170455  1.0000
  H   H3        1.0  0.3152151165995747  0.1828787405975163  0.31602440343704075  1.0000
  H   H4        1.0  0.6651016161777079  0.9527580024441704  0.476229248335585  1.0000
  H   H5        1.0  0.12546525604557246  0.386389567371225  0.3775502758799121  1.0000
  H   H6        1.0  0.19064898043870926  0.302777960896492  0.663895271718502  1.0000
  H   H7        1.0  0.3698030789382756  0.28099211887456477  0.49118117132456973  1.0000
  H   H8        1.0  0.9609606498852372  0.4032085840590298  0.07222138368524611  1.0000
  H   H9        1.0  0.47680619778111577  0.15273842829628848  0.04057273268699646  1.0000
  H   H10       1.0  0.11058690556092188  0.3934225169941783  0.6902500573778525  1.0000
  H   H11       1.0  0.0747794471681118  0.20856907730922103  0.06384077575057745  1.0000
  H   H12       1.0  0.23873779363930225  0.8380734855309129  0.7336462922394276  1.0000
  H   H13       1.0  0.7796842884272337  0.7787869984749705  0.11392065975815058  1.0000
  H   H14       1.0  0.29640652146190405  0.03068637754768133  0.18059412762522697  1.0000
  H   H15       1.0  0.523458756506443  0.5465506464242935  0.3196323439478874  1.0000
  H   H16       1.0  0.25756002590060234  0.4825065080076456  0.768668957054615  1.0000
  S   S1        1.0  0.5729031802620739  0.6007445121067576  0.8739073949982412  1.0000
  S   S2        1.0  0.00014474987983703613  0.6104028150439262  0.37883418053388596  1.0000
  S   S3        1.0  0.047586952336132526  0.13501380570232868  0.30761272087693214  1.0000
  S   S4        1.0  0.23184238001704216  0.9858709534164518  0.32342068920843303  1.0000
  S   S5        1.0  0.35115337441675365  0.19299087254330516  0.5373515873216093  1.0000
  S   S6        1.0  0.4909227527678013  0.3963417839258909  0.4996726419776678  1.0000
  S   S7        1.0  0.7773668970912695  0.16988311940804124  0.11252867989242077  1.0000
  S   S8        1.0  0.998630438465625  0.09546952228993177  0.47029056516475976  1.0000
data_image197
_chemical_formula_structural       H16S8
_chemical_formula_sum              "H16 S8"
_cell_length_a       8.83753075774048
_cell_length_b       8.83753075774048
_cell_length_c       8.83753075774048
_cell_angle_alpha    118.690318510586
_cell_angle_beta     118.69031851058598
_cell_angle_gamma    92.28380992055807

_space_group_name_H-M_alt    "P 1"
_space_group_IT_number       1

loop_
  _space_group_symop_operation_xyz
  'x, y, z'

loop_
  _atom_site_type_symbol
  _atom_site_label
  _atom_site_symmetry_multiplicity
  _atom_site_fract_x
  _atom_site_fract_y
  _atom_site_fract_z
  _atom_site_occupancy
  H   H1        1.0  0.7760758045478724  0.9232280084397644  0.9726184881292284  1.0000
  H   H2        1.0  0.9942675344645977  0.9679427929222584  0.07571631669998169  1.0000
  H   H3        1.0  0.12275040871463716  0.17757162312045693  0.135647265764419  1.0000
  H   H4        1.0  0.18944913381710649  0.9126986713381484  0.5047418642789125  1.0000
  H   H5        1.0  0.9886982630705461  0.4539974479121156  0.9555098310811445  1.0000
  H   H6        1.0  0.4521717745810747  0.3332340121269226  0.02971290796995163  1.0000
  H   H7        1.0  0.2721721613779664  0.06847414025105536  0.8283940277178772  1.0000
  H   H8        1.0  0.11140606226399541  0.7461530759464949  0.915884479181841  1.0000
  H   H9        1.0  0.1823740149848163  0.9785688390256837  0.03975815884768963  1.0000
  H   H10       1.0  0.7420419393456541  0.1177946925163269  0.9984804281266406  1.0000
  H   H11       1.0  0.8070088364183903  0.3227101704105735  0.277840806171298  1.0000
  H   H12       1.0  0.4134797379374504  0.6512887729331851  0.26997665874660015  1.0000
  H   H13       1.0  0.054149901028722525  0.4492308914195746  0.41766903828829527  1.0000
  H   H14       1.0  0.3933483250439167  0.4791813101619482  0.05841153487563133  1.0000
  H   H15       1.0  0.11391110718250275  0.3679628986865282  0.4241931475698948  1.0000
  H   H16       1.0  0.5280892886221409  0.8311901288107038  0.6733699515461922  1.0000
  S   S1        1.0  0.4499944495037198  0.2557366920518689  0.3585155023902189  1.0000
  S   S2        1.0  0.04249052330851555  0.9350832551717758  0.05633463338017464  1.0000
  S   S3        1.0  0.9479997577145696  0.46833984926342964  0.9907749332487583  1.0000
  S   S4        1.0  0.20792088622692972  0.7179936969187111  0.717879825271666  1.0000
  S   S5        1.0  0.7791209823917598  0.7759563524741679  0.3560328599996865  1.0000
  S   S6        1.0  0.04462479054927826  0.6757082343101501  0.022327207028865814  1.0000
  S   S7        1.0  0.8700335421599448  0.5240246907342225  0.3762049302458763  1.0000
  S   S8        1.0  0.1585263959132135  0.5915904471185058  0.7504480727948248  1.0000
data_image198
_chemical_formula_structural       H16S8
_chemical_formula_sum              "H16 S8"
_cell_length_a       8.83753075774048
_cell_length_b       8.83753075774048
_cell_length_c       8.83753075774048
_cell_angle_alpha    118.690318510586
_cell_angle_beta     118.69031851058598
_cell_angle_gamma    92.28380992055807

_space_group_name_H-M_alt    "P 1"
_space_group_IT_number       1

loop_
  _space_group_symop_operation_xyz
  'x, y, z'

loop_
  _atom_site_type_symbol
  _atom_site_label
  _atom_site_symmetry_multiplicity
  _atom_site_fract_x
  _atom_site_fract_y
  _atom_site_fract_z
  _atom_site_occupancy
  H   H1        1.0  0.14769425545819104  0.15681191557087004  0.01015635346993804  1.0000
  H   H2        1.0  0.8608227446675301  0.593541357666254  0.18353132344782352  1.0000
  H   H3        1.0  0.04400355229154229  0.7754474435932934  0.6354692847235128  1.0000
  H   H4        1.0  0.7265592231415212  0.8220801077550277  0.8255569350440055  1.0000
  H   H5        1.0  0.4784563633147627  0.5325225225533359  0.060189197305589914  1.0000
  H   H6        1.0  0.1328489575535059  0.5977192409336567  0.1704239547252655  1.0000
  H   H7        1.0  0.6150556267239153  0.816038989694789  0.1902794032357633  1.0000
  H   H8        1.0  0.4055073303170502  0.0810667322948575  0.7168945412850007  1.0000
  H   H9        1.0  0.1584840570576489  0.22471501366817392  0.9952338729053736  1.0000
  H   H10       1.0  0.32620438060257584  0.5521709322929382  0.8347267872886732  1.0000
  H   H11       1.0  0.6265010014176369  0.35834801429882646  0.30556067544966936  1.0000
  H   H12       1.0  0.08974380698055029  0.62682990077883  0.9999070316553116  1.0000
  H   H13       1.0  0.7840679935179651  0.300378848798573  0.8491161086130887  1.0000
  H   H14       1.0  0.9142464147880673  0.8781550815328956  0.9317011311650276  1.0000
  H   H15       1.0  0.2334894873201847  0.538580970838666  0.5067522302269936  1.0000
  H   H16       1.0  0.6252712607383728  0.2081865156069398  0.3960887975990772  1.0000
  S   S1        1.0  0.03454216732643545  0.25673946493770927  0.6890915810363367  1.0000
  S   S2        1.0  0.5726408585906029  0.31914666295051575  0.6813400201499462  1.0000
  S   S3        1.0  0.1751569276675582  0.0356165524572134  0.8862899541854858  1.0000
  S   S4        1.0  0.357920334674418  0.6778200453845784  0.3436101045226678  1.0000
  S   S5        1.0  0.2992917119991034  0.4738624591846019  0.9467371697537601  1.0000
  S   S6        1.0  0.07073214277625084  0.20714769698679447  0.9201831594109535  1.0000
  S   S7        1.0  0.22315751668065786  0.52905490656849  0.8077401868067682  1.0000
  S   S8        1.0  0.6229297379031777  0.23076720698736608  0.20432382449507713  1.0000
data_image199
_chemical_formula_structural       H16S8
_chemical_formula_sum              "H16 S8"
_cell_length_a       8.83753075774048
_cell_length_b       8.83753075774048
_cell_length_c       8.83753075774048
_cell_angle_alpha    118.690318510586
_cell_angle_beta     118.69031851058598
_cell_angle_gamma    92.28380992055807

_space_group_name_H-M_alt    "P 1"
_space_group_IT_number       1

loop_
  _space_group_symop_operation_xyz
  'x, y, z'

loop_
  _atom_site_type_symbol
  _atom_site_label
  _atom_site_symmetry_multiplicity
  _atom_site_fract_x
  _atom_site_fract_y
  _atom_site_fract_z
  _atom_site_occupancy
  H   H1        1.0  0.22232871549203992  0.47578115994110703  0.7708036820404232  1.0000
  H   H2        1.0  0.7670702524483204  0.9426967725157738  0.24566752463579178  1.0000
  H   H3        1.0  0.6060526773799211  0.4339024149812758  0.5951400247286074  1.0000
  H   H4        1.0  0.3302551764063537  0.31896983773913234  0.37816170882433653  1.0000
  H   H5        1.0  0.44524764991365373  0.29975526995258406  0.8597936555743217  1.0000
  H   H6        1.0  0.9869871605187654  0.6400036588311195  0.7651334032416344  1.0000
  H   H7        1.0  0.6230948036536574  0.18185955565422773  0.32324842039088253  1.0000
  H   H8        1.0  0.7754744314588606  0.2259983322583139  0.7140025005210191  1.0000
  H   H9        1.0  0.6362205846235156  0.01551875309087336  0.5250642225146294  1.0000
  H   H10       1.0  0.17086077854037285  0.1484401971101761  0.8521182127296925  1.0000
  H   H11       1.0  0.9187826979905367  0.7660093770828098  0.9155294643715024  1.0000
  H   H12       1.0  0.5412281677126884  0.7371841631829739  0.7335226144641638  1.0000
  H   H13       1.0  0.6972197275608778  0.7345988538581878  0.605587339727208  1.0000
  H   H14       1.0  0.07487293006852269  0.9409586433321238  0.8347083106637001  1.0000
  H   H15       1.0  0.6280433610081673  0.33004537411034107  0.5875396281480789  1.0000
  H   H16       1.0  0.4949137754738331  0.4390593646094203  0.19197013974189758  1.0000
  S   S1        1.0  0.1233411617577076  0.6664359469432384  0.7511971399653703  1.0000
  S   S2        1.0  0.09461811184883118  0.19256054982542992  0.4308411739766598  1.0000
  S   S3        1.0  0.7282609064131975  0.23194275237619877  0.09183031693100929  1.0000
  S   S4        1.0  0.6799759696004912  0.5670651732943952  0.42374289652798325  1.0000
  S   S5        1.0  0.19410980714019388  0.6763407499529421  0.8779683201573789  1.0000
  S   S6        1.0  0.3506610170006752  0.9080211389809847  0.5858188178390265  1.0000
  S   S7        1.0  0.14644600870087743  0.7177242453908548  0.3549786298535764  1.0000
  S   S8        1.0  0.6683767447248101  0.8916053369175643  0.917593530844897  1.0000
data_image200
_chemical_formula_structural       H16S8
_chemical_formula_sum              "H16 S8"
_cell_length_a       8.83753075774048
_cell_length_b       8.83753075774048
_cell_length_c       8.83753075774048
_cell_angle_alpha    118.690318510586
_cell_angle_beta     118.69031851058598
_cell_angle_gamma    92.28380992055807

_space_group_name_H-M_alt    "P 1"
_space_group_IT_number       1

loop_
  _space_group_symop_operation_xyz
  'x, y, z'

loop_
  _atom_site_type_symbol
  _atom_site_label
  _atom_site_symmetry_multiplicity
  _atom_site_fract_x
  _atom_site_fract_y
  _atom_site_fract_z
  _atom_site_occupancy
  H   H1        1.0  0.29422300844453275  0.8193203313276172  0.04047416290268302  1.0000
  H   H2        1.0  0.7925492078065872  0.8788085803389549  0.11306921951472759  1.0000
  H   H3        1.0  0.5587704160716385  0.8932369211688638  0.3353651770739816  1.0000
  H   H4        1.0  0.47290540719404817  0.9929996404098347  0.627906933426857  1.0000
  H   H5        1.0  0.7729568898212165  0.9637130747141782  0.3001755937002599  1.0000
  H   H6        1.0  0.7708749007433653  0.17587797343730927  0.6176616549491882  1.0000
  H   H7        1.0  0.42082821391522884  0.8752455825451761  0.9317746062588412  1.0000
  H   H8        1.0  0.8493131375871599  0.005606919061392546  0.43880240339785814  1.0000
  H   H9        1.0  0.495848270598799  0.655506848153891  0.9163334425538778  1.0000
  H   H10       1.0  0.8729177538771182  0.3264545854181051  0.14964735670946538  1.0000
  H   H11       1.0  0.38075780496001244  0.0498697601724416  0.4033776381984353  1.0000
  H   H12       1.0  0.16799656581133604  0.1701551042497158  0.6768866311758757  1.0000
  H   H13       1.0  0.9468569294549525  0.7072972664609551  0.4619614356197417  1.0000
  H   H14       1.0  0.4609074452891946  0.20453482680022717  0.5104816071689129  1.0000
  H   H15       1.0  0.7691996730864048  0.32039688527584076  0.9386293441057205  1.0000
  H   H16       1.0  0.1794930323958397  0.4680557558313012  0.12130546942353249  1.0000
  S   S1        1.0  0.8940407505724579  0.16257393499836326  0.31322064631967805  1.0000
  S   S2        1.0  0.9923094548285007  0.8122777827084064  0.3509482331573963  1.0000
  S   S3        1.0  0.6978422701358795  0.6017444208264351  0.12011851370334625  1.0000
  S   S4        1.0  0.999230606132187  0.08969754306599498  0.6850128058576956  1.0000
  S   S5        1.0  0.7364594239043072  0.9903321338351816  0.10570570873096585  1.0000
  S   S6        1.0  0.6260697208344936  0.9780976716428995  0.32199455611407757  1.0000
  S   S7        1.0  0.8611511318013072  0.33861223491840065  0.9468361032195389  1.0000
  S   S8        1.0  0.34436784218996763  0.2370251847896725  0.9001738068182021  1.0000
