data_image0
_chemical_formula_structural       Cs4H4S4O8
_chemical_formula_sum              "Cs4 H4 S4 O8"
_cell_length_a       5.817371
_cell_length_b       6.411326074356613
_cell_length_c       12.038703921785974
_cell_angle_alpha    93.7344795294116
_cell_angle_beta     90.0
_cell_angle_gamma    116.97998093780937

_space_group_name_H-M_alt    "P 1"
_space_group_IT_number       1

loop_
  _space_group_symop_operation_xyz
  'x, y, z'

loop_
  _atom_site_type_symbol
  _atom_site_label
  _atom_site_symmetry_multiplicity
  _atom_site_fract_x
  _atom_site_fract_y
  _atom_site_fract_z
  _atom_site_occupancy
  Cs  Cs1       1.0  0.226645  0.453291  0.343985  1.0000
  Cs  Cs2       1.0  0.773355  0.5467089999999999  0.656015  1.0000
  Cs  Cs3       1.0  0.853449  0.7068979999999998  0.081122  1.0000
  Cs  Cs4       1.0  0.146551  0.293102  0.9188780000000001  1.0000
  H   H1        1.0  0.805918  0.882384  0.371893  1.0000
  H   H2        1.0  0.07646599999999998  0.882384  0.371893  1.0000
  H   H3        1.0  0.194082  0.11761600000000001  0.6281070000000001  1.0000
  H   H4        1.0  0.923534  0.11761600000000001  0.6281070000000001  1.0000
  S   S1        1.0  0.540945  0.081891  0.3598810000000001  1.0000
  S   S2        1.0  0.45905499999999994  0.9181089999999998  0.6401189999999999  1.0000
  S   S3        1.0  0.533247  0.066493  0.18874499999999997  1.0000
  S   S4        1.0  0.466753  0.933507  0.811255  1.0000
  O   O1        1.0  0.8887989999999999  0.777598  0.3729370000000001  1.0000
  O   O2        1.0  0.11120099999999998  0.22240199999999996  0.6270629999999999  1.0000
  O   O3        1.0  0.80377  0.185612  0.15211  1.0000
  O   O4        1.0  0.381842  0.185612  0.15211  1.0000
  O   O5        1.0  0.19622999999999988  0.8143879999999998  0.84789  1.0000
  O   O6        1.0  0.6181579999999998  0.8143879999999998  0.84789  1.0000
  O   O7        1.0  0.406416  0.812831  0.148565  1.0000
  O   O8        1.0  0.593584  0.18716900000000003  0.8514350000000002  1.0000
data_image1
_chemical_formula_structural       Cs4H4S4O8
_chemical_formula_sum              "Cs4 H4 S4 O8"
_cell_length_a       5.817371
_cell_length_b       6.411326074356613
_cell_length_c       12.038703921785974
_cell_angle_alpha    93.7344795294116
_cell_angle_beta     90.0
_cell_angle_gamma    116.97998093780937

_space_group_name_H-M_alt    "P 1"
_space_group_IT_number       1

loop_
  _space_group_symop_operation_xyz
  'x, y, z'

loop_
  _atom_site_type_symbol
  _atom_site_label
  _atom_site_symmetry_multiplicity
  _atom_site_fract_x
  _atom_site_fract_y
  _atom_site_fract_z
  _atom_site_occupancy
  Cs  Cs1       1.0  0.25678421038849075  0.42380942747290634  0.3519565111725803  1.0000
  Cs  Cs2       1.0  0.7743940273449869  0.5476565375880044  0.6421539783799258  1.0000
  Cs  Cs3       1.0  0.857362415676709  0.6683570233489958  0.06080499039629532  1.0000
  Cs  Cs4       1.0  0.09879198877036309  0.2701089125245184  0.9201880032099666  1.0000
  H   H1        1.0  0.5002037632112832  0.21785179145862754  0.469573814885645  1.0000
  H   H2        1.0  0.8236730940757598  0.7247977304340256  0.4019653136301861  1.0000
  H   H3        1.0  0.8834109231088407  0.5005697307185089  0.42407403645656094  1.0000
  H   H4        1.0  0.06175280753963519  0.41079658744816483  0.5981576628063482  1.0000
  S   S1        1.0  0.5476412230657249  0.08380759675874484  0.3813205881401971  1.0000
  S   S2        1.0  0.4434639792185526  0.9955351255672233  0.6521680697998069  1.0000
  S   S3        1.0  0.5029966338064195  0.059747746614085516  0.2173702212706336  1.0000
  S   S4        1.0  0.4863215776995858  0.9828333253854261  0.8065576188756947  1.0000
  O   O1        1.0  0.14961321129777772  0.8893436714716543  0.4916638262433342  1.0000
  O   O2        1.0  0.21423569354884472  0.4230758979896889  0.6167729638218566  1.0000
  O   O3        1.0  0.7284926807945025  0.1324049170361616  0.14457430166929555  1.0000
  O   O4        1.0  0.33874416448171746  0.19382910515489876  0.18174183798593782  1.0000
  O   O5        1.0  0.2116418864811543  0.85967314304844  0.8580800237481003  1.0000
  O   O6        1.0  0.6333748386162715  0.8475840453846256  0.8245593648145657  1.0000
  O   O7        1.0  0.34284305580836444  0.8115722281803861  0.1770122670168251  1.0000
  O   O8        1.0  0.6117743684155545  0.24524994054252489  0.828428471700753  1.0000
data_image2
_chemical_formula_structural       Cs4H4S4O8
_chemical_formula_sum              "Cs4 H4 S4 O8"
_cell_length_a       5.817371
_cell_length_b       6.411326074356613
_cell_length_c       12.038703921785974
_cell_angle_alpha    93.7344795294116
_cell_angle_beta     90.0
_cell_angle_gamma    116.97998093780937

_space_group_name_H-M_alt    "P 1"
_space_group_IT_number       1

loop_
  _space_group_symop_operation_xyz
  'x, y, z'

loop_
  _atom_site_type_symbol
  _atom_site_label
  _atom_site_symmetry_multiplicity
  _atom_site_fract_x
  _atom_site_fract_y
  _atom_site_fract_z
  _atom_site_occupancy
  Cs  Cs1       1.0  0.2445712705877623  0.7203436061757231  0.9715889264015934  1.0000
  Cs  Cs2       1.0  0.4294763634275631  0.7965115569807462  0.7981250573737522  1.0000
  Cs  Cs3       1.0  0.021898157413420938  0.5345424516106558  0.11354195258492386  1.0000
  Cs  Cs4       1.0  0.5980104499924317  0.033529819532925664  0.776912514573972  1.0000
  H   H1        1.0  0.03711562461934648  0.11867318082215661  0.7094811750043277  1.0000
  H   H2        1.0  0.903767725099744  0.42193755177742887  0.5676319323345531  1.0000
  H   H3        1.0  0.27074269691057395  0.4706752160629719  0.7929792023696507  1.0000
  H   H4        1.0  0.4230883731706854  0.6620705899986206  0.42884998701310906  1.0000
  S   S1        1.0  0.9584706094864828  0.42619229076080956  0.7177138043351903  1.0000
  S   S2        1.0  0.9411012635518006  0.842276168951642  0.26925807525845535  1.0000
  S   S3        1.0  0.33579745595515575  0.011772404525622449  0.20742255964283274  1.0000
  S   S4        1.0  0.9430614682042866  0.11651679754804212  0.467467647413073  1.0000
  O   O1        1.0  0.8727822166503074  0.6109906235841436  0.10534312072152119  1.0000
  O   O2        1.0  0.7430835564300056  0.3627202293119005  0.5405627528576087  1.0000
  O   O3        1.0  0.22810770395726188  0.3935563679055959  0.005199158312228391  1.0000
  O   O4        1.0  0.15723045428943427  0.5739631329660064  0.8154171384008055  1.0000
  O   O5        1.0  0.5882500663185866  0.10550352834163856  0.35786757795207824  1.0000
  O   O6        1.0  0.9907802327237214  0.47788431863128134  0.5185657965883008  1.0000
  O   O7        1.0  0.5947221129788982  0.6872206525050224  0.1587708405371444  1.0000
  O   O8        1.0  0.9582542267651868  0.38545871703341306  0.790813977531047  1.0000
data_image3
_chemical_formula_structural       Cs4H4S4O8
_chemical_formula_sum              "Cs4 H4 S4 O8"
_cell_length_a       5.817371
_cell_length_b       6.411326074356613
_cell_length_c       12.038703921785974
_cell_angle_alpha    93.7344795294116
_cell_angle_beta     90.0
_cell_angle_gamma    116.97998093780937

_space_group_name_H-M_alt    "P 1"
_space_group_IT_number       1

loop_
  _space_group_symop_operation_xyz
  'x, y, z'

loop_
  _atom_site_type_symbol
  _atom_site_label
  _atom_site_symmetry_multiplicity
  _atom_site_fract_x
  _atom_site_fract_y
  _atom_site_fract_z
  _atom_site_occupancy
  Cs  Cs1       1.0  0.23075667945434297  0.040685097881691945  0.5538615873872459  1.0000
  Cs  Cs2       1.0  0.34714156814152375  0.969453965764842  0.13321982747220318  1.0000
  Cs  Cs3       1.0  0.7506928862569566  0.3693827285170528  0.34486673446951954  1.0000
  Cs  Cs4       1.0  0.5347971239349292  0.8380450353105431  0.12141921416653734  1.0000
  H   H1        1.0  0.20500745151366573  0.6194388089934364  0.09363606551778503  1.0000
  H   H2        1.0  0.20967554417438805  0.9232198297977448  0.7685511074960232  1.0000
  H   H3        1.0  0.014160065238684183  0.7235259494018464  0.37282270841933496  1.0000
  H   H4        1.0  0.24609702557791024  0.2978975458536297  0.7646166307968087  1.0000
  S   S1        1.0  0.3959478438368933  0.7737453888548771  0.8157606206179935  1.0000
  S   S2        1.0  0.7678528154990545  0.5223823680998976  0.4447373563654651  1.0000
  S   S3        1.0  0.18393579969438179  0.7869382068781761  0.6197896009282431  1.0000
  S   S4        1.0  0.3540259821679683  0.6889608534422678  0.7510527733263643  1.0000
  O   O1        1.0  0.9681033727270005  0.836905145095443  0.7232274938437513  1.0000
  O   O2        1.0  0.06046664861196405  0.4002976307285735  0.4848091451519281  1.0000
  O   O3        1.0  0.898883018343895  0.19741385055181127  0.38236253225454675  1.0000
  O   O4        1.0  0.3557004173358109  0.5009278201282541  0.05900043276864153  1.0000
  O   O5        1.0  0.29122957726212917  0.5624576110494672  0.583534290548414  1.0000
  O   O6        1.0  0.1282079211351288  0.9190445622530206  0.7344307233289555  1.0000
  O   O7        1.0  0.5916852304071654  0.43835004724678583  0.5898940897786815  1.0000
  O   O8        1.0  0.050135862543470466  0.4285956805479145  0.8679159678112001  1.0000
data_image4
_chemical_formula_structural       Cs4H4S4O8
_chemical_formula_sum              "Cs4 H4 S4 O8"
_cell_length_a       5.817371
_cell_length_b       6.411326074356613
_cell_length_c       12.038703921785974
_cell_angle_alpha    93.7344795294116
_cell_angle_beta     90.0
_cell_angle_gamma    116.97998093780937

_space_group_name_H-M_alt    "P 1"
_space_group_IT_number       1

loop_
  _space_group_symop_operation_xyz
  'x, y, z'

loop_
  _atom_site_type_symbol
  _atom_site_label
  _atom_site_symmetry_multiplicity
  _atom_site_fract_x
  _atom_site_fract_y
  _atom_site_fract_z
  _atom_site_occupancy
  Cs  Cs1       1.0  0.3324276616622228  0.9337708837119862  0.775739458433236  1.0000
  Cs  Cs2       1.0  0.5618863397976384  0.5460538261395413  0.587069120752858  1.0000
  Cs  Cs3       1.0  0.5673001088828187  0.37060922957243747  0.49815378643870645  1.0000
  Cs  Cs4       1.0  0.4138993405788085  0.11415198224278811  0.8290659653381454  1.0000
  H   H1        1.0  0.3100934758258518  0.21410201501566917  0.8357784917461686  1.0000
  H   H2        1.0  0.8118548132479191  0.6458017826080322  0.950297998264432  1.0000
  H   H3        1.0  0.6013008700247156  0.9580935722406139  0.7037077111999679  1.0000
  H   H4        1.0  0.14426559687126428  0.13300416665151715  0.26719661679817364  1.0000
  S   S1        1.0  0.09170289358007722  0.7119429927624878  0.46968796435066906  1.0000
  S   S2        1.0  0.868991685576475  0.8570820610018473  0.21282377864258706  1.0000
  S   S3        1.0  0.14040058652835796  0.7128505176460749  0.36845410201567574  1.0000
  S   S4        1.0  0.02302456204779446  0.9828324023401365  0.46770486961031565  1.0000
  O   O1        1.0  0.992712552314515  0.3105399505147943  0.8048038840241816  1.0000
  O   O2        1.0  0.5792980332425941  0.8852210890181595  0.21645374269462536  1.0000
  O   O3        1.0  0.650713394403283  0.8340275769332948  0.4746419514558511  1.0000
  O   O4        1.0  0.33856635644951893  0.564429862293764  0.42962943565567  1.0000
  O   O5        1.0  0.4105271826556418  0.32621337022283114  0.2740099602306145  1.0000
  O   O6        1.0  0.032993894536048174  0.0541499306273181  0.9894776781802648  1.0000
  O   O7        1.0  0.7194823034806177  0.6835159113397822  0.13205873733386397  1.0000
  O   O8        1.0  0.6887136956902395  0.024502037893398665  0.8478338166551111  1.0000
data_image5
_chemical_formula_structural       Cs4H4S4O8
_chemical_formula_sum              "Cs4 H4 S4 O8"
_cell_length_a       5.817371
_cell_length_b       6.411326074356613
_cell_length_c       12.038703921785974
_cell_angle_alpha    93.7344795294116
_cell_angle_beta     90.0
_cell_angle_gamma    116.97998093780937

_space_group_name_H-M_alt    "P 1"
_space_group_IT_number       1

loop_
  _space_group_symop_operation_xyz
  'x, y, z'

loop_
  _atom_site_type_symbol
  _atom_site_label
  _atom_site_symmetry_multiplicity
  _atom_site_fract_x
  _atom_site_fract_y
  _atom_site_fract_z
  _atom_site_occupancy
  Cs  Cs1       1.0  0.3141547812556382  0.7505002417310607  0.6240543929598061  1.0000
  Cs  Cs2       1.0  0.007633263478055596  0.9985708034655545  0.13951452453329694  1.0000
  Cs  Cs3       1.0  0.6557081953724264  0.4291452760589891  0.4096377171754284  1.0000
  Cs  Cs4       1.0  0.11644410001463257  0.70726769475732  0.47571018140297383  1.0000
  H   H1        1.0  0.5104698598879622  0.7325158466119319  0.018181250721681863  1.0000
  H   H2        1.0  0.30224839597940445  0.3577053174376488  0.13621549308300018  1.0000
  H   H3        1.0  0.031638602958992124  0.430409480817616  0.9386038240336347  1.0000
  H   H4        1.0  0.19069873471744359  0.9091333174146712  0.5970313525176607  1.0000
  S   S1        1.0  0.21814978555266862  0.6317540834861575  0.5703884606500651  1.0000
  S   S2        1.0  0.4861902745014959  0.5622755324584432  0.24894399692857405  1.0000
  S   S3        1.0  0.3025692212577269  0.04937859414894774  0.6378716043764143  1.0000
  S   S4        1.0  0.08755485655274242  0.29139337604647153  0.5795152007776778  1.0000
  O   O1        1.0  0.6100531689150159  0.8840722287568497  0.3154269571605255  1.0000
  O   O2        1.0  0.39552595986060624  0.6506092977497246  0.7846608870567309  1.0000
  O   O3        1.0  0.7552569302351912  0.3962908344619791  0.2757772656987072  1.0000
  O   O4        1.0  0.7606511711073836  0.698821731386829  0.9957007181416202  1.0000
  O   O5        1.0  0.46672764714458026  0.09863887770916335  0.5240102035240852  1.0000
  O   O6        1.0  0.016757690464146435  0.5216542618290987  0.08383806521305814  1.0000
  O   O7        1.0  0.5928856520913541  0.4240479595027864  0.2330686823115684  1.0000
  O   O8        1.0  0.32919330813456327  0.6889252397813834  0.9496354933826296  1.0000
data_image6
_chemical_formula_structural       Cs4H4S4O8
_chemical_formula_sum              "Cs4 H4 S4 O8"
_cell_length_a       5.817371
_cell_length_b       6.411326074356613
_cell_length_c       12.038703921785974
_cell_angle_alpha    93.7344795294116
_cell_angle_beta     90.0
_cell_angle_gamma    116.97998093780937

_space_group_name_H-M_alt    "P 1"
_space_group_IT_number       1

loop_
  _space_group_symop_operation_xyz
  'x, y, z'

loop_
  _atom_site_type_symbol
  _atom_site_label
  _atom_site_symmetry_multiplicity
  _atom_site_fract_x
  _atom_site_fract_y
  _atom_site_fract_z
  _atom_site_occupancy
  Cs  Cs1       1.0  0.9507878148579039  0.5700144337897655  0.3657646138599375  1.0000
  Cs  Cs2       1.0  0.656152548675891  0.21103760867845267  0.8512604573916178  1.0000
  Cs  Cs3       1.0  0.12110381762249744  0.949414888767933  0.30122759705773205  1.0000
  Cs  Cs4       1.0  0.5191437502217013  0.5510144451982342  0.4307218126632506  1.0000
  H   H1        1.0  0.07852787904266734  0.6654005404561758  0.7170324956532568  1.0000
  H   H2        1.0  0.4067102521657944  0.38386746868491173  0.19514978304505348  1.0000
  H   H3        1.0  0.9596966942772269  0.6122948344564065  0.4855872116750106  1.0000
  H   H4        1.0  0.4788540983572602  0.933812337461859  0.5125982673489489  1.0000
  S   S1        1.0  0.9276528569644142  0.19033600541661144  0.23486050081373833  1.0000
  S   S2        1.0  0.16817283485943335  0.11019757733447477  0.6783900126101798  1.0000
  S   S3        1.0  0.07198967733347672  0.71935430157464  0.9972214151566732  1.0000
  S   S4        1.0  0.04524061898700893  0.5374419738836878  0.5903798055951484  1.0000
  O   O1        1.0  0.2868013821284876  0.9731576316553401  0.8016843953937496  1.0000
  O   O2        1.0  0.4832571030819963  0.6652433217750513  0.19570185086649872  1.0000
  O   O3        1.0  0.3341597302205628  0.04770450321666431  0.16873916325857863  1.0000
  O   O4        1.0  0.9907645694238454  0.4522171483099555  0.570050153354714  1.0000
  O   O5        1.0  0.05765738768968731  0.8482335233420599  0.5087137774453367  1.0000
  O   O6        1.0  0.49501458361919504  0.28281933639664203  0.023141782581660664  1.0000
  O   O7        1.0  0.6200518832774833  0.9429514685180038  0.39709451742237434  1.0000
  O   O8        1.0  0.9575446467497386  0.762948918294569  0.9316852932352049  1.0000
data_image7
_chemical_formula_structural       Cs4H4S4O8
_chemical_formula_sum              "Cs4 H4 S4 O8"
_cell_length_a       5.817371
_cell_length_b       6.411326074356613
_cell_length_c       12.038703921785974
_cell_angle_alpha    93.7344795294116
_cell_angle_beta     90.0
_cell_angle_gamma    116.97998093780937

_space_group_name_H-M_alt    "P 1"
_space_group_IT_number       1

loop_
  _space_group_symop_operation_xyz
  'x, y, z'

loop_
  _atom_site_type_symbol
  _atom_site_label
  _atom_site_symmetry_multiplicity
  _atom_site_fract_x
  _atom_site_fract_y
  _atom_site_fract_z
  _atom_site_occupancy
  Cs  Cs1       1.0  0.10047933459281921  0.3615169135155156  0.9872068763361312  1.0000
  Cs  Cs2       1.0  0.11173645235248841  0.015406611550133675  0.0066409638384357095  1.0000
  Cs  Cs3       1.0  0.10015204083174467  0.057693179696798325  0.6143159521743655  1.0000
  Cs  Cs4       1.0  0.8800392866833135  0.8939817614736967  0.2775019805121701  1.0000
  H   H1        1.0  0.07015902975035715  0.8527115783654153  0.5555395797709934  1.0000
  H   H2        1.0  0.006675854325294495  0.019932355731725693  0.032900866121053696  1.0000
  H   H3        1.0  0.9602259495295584  0.17461776884738356  0.3873510704142973  1.0000
  H   H4        1.0  0.1213255194015801  0.763477654196322  0.9649861504440196  1.0000
  S   S1        1.0  0.3428661860525608  0.7204187288880348  0.9747011493891478  1.0000
  S   S2        1.0  0.5561849579535192  0.9239944006549194  0.4908529471285874  1.0000
  S   S3        1.0  0.1919492546685433  0.43380841472026077  0.6337431082647527  1.0000
  S   S4        1.0  0.2384770237840712  0.6999751296170871  0.5411566288676113  1.0000
  O   O1        1.0  0.10590223348117433  0.6046412165196671  0.5098636058210104  1.0000
  O   O2        1.0  0.6463979196942091  0.16685760147993278  0.8632362759726675  1.0000
  O   O3        1.0  0.6270611518120859  0.5657162290935958  0.7116547303376137  1.0000
  O   O4        1.0  0.35959752128837863  0.513417693631709  0.5367231957379772  1.0000
  O   O5        1.0  0.6141821205383167  0.3095307472103741  0.8898473394110624  1.0000
  O   O6        1.0  0.39580558659508824  0.3283974580699578  0.4156357226311229  1.0000
  O   O7        1.0  0.4074456018861383  0.0009368672035634518  0.18226152419811115  1.0000
  O   O8        1.0  0.9679956752806902  0.8556774819344355  0.32496238225576235  1.0000
data_image8
_chemical_formula_structural       Cs4H4S4O8
_chemical_formula_sum              "Cs4 H4 S4 O8"
_cell_length_a       5.817371
_cell_length_b       6.411326074356613
_cell_length_c       12.038703921785974
_cell_angle_alpha    93.7344795294116
_cell_angle_beta     90.0
_cell_angle_gamma    116.97998093780937

_space_group_name_H-M_alt    "P 1"
_space_group_IT_number       1

loop_
  _space_group_symop_operation_xyz
  'x, y, z'

loop_
  _atom_site_type_symbol
  _atom_site_label
  _atom_site_symmetry_multiplicity
  _atom_site_fract_x
  _atom_site_fract_y
  _atom_site_fract_z
  _atom_site_occupancy
  Cs  Cs1       1.0  0.35552226193249226  0.6118386900634505  0.3441042516496964  1.0000
  Cs  Cs2       1.0  0.37809231580467895  0.9584768790518865  0.9472371038573328  1.0000
  Cs  Cs3       1.0  0.7219736501574516  0.45623003505170345  0.3935104236006737  1.0000
  Cs  Cs4       1.0  0.6289699982735328  0.9896502211340703  0.17936406575608999  1.0000
  H   H1        1.0  0.3267123641453509  0.6837400894146413  0.5989855088992044  1.0000
  H   H2        1.0  0.4380922131240368  0.008188851177692413  0.48579005524516106  1.0000
  H   H3        1.0  0.8224017268512398  0.8063852522755042  0.0954295759438537  1.0000
  H   H4        1.0  0.6259969648090191  0.47673492319881916  0.7268918492354715  1.0000
  S   S1        1.0  0.8924721628427505  0.8747974187135696  0.9452950842678547  1.0000
  S   S2        1.0  0.636364348087227  0.09573859220836312  0.43567870471451897  1.0000
  S   S3        1.0  0.5241700776241487  0.617835116936476  0.2632485927269954  1.0000
  S   S4        1.0  0.6679365141317248  0.6633406318214838  0.23242169781588018  1.0000
  O   O1        1.0  0.9450729996315204  0.19857740861334605  0.014740187948973471  1.0000
  O   O2        1.0  0.5937465323077049  0.09039027842663927  0.7712916897016839  1.0000
  O   O3        1.0  0.20429610641440377  0.15453321352924831  0.897059929317038  1.0000
  O   O4        1.0  0.115026415194734  0.7123359912657179  0.5463349104684312  1.0000
  O   O5        1.0  0.06304592307424173  0.6967713764170185  0.2006178675846968  1.0000
  O   O6        1.0  0.33363036380615085  0.16121955984272063  0.7021191700478084  1.0000
  O   O7        1.0  0.23906722734682262  0.12497014156542718  0.998457542329561  1.0000
  O   O8        1.0  0.15886706812307239  0.7176953169400804  0.23292510921601206  1.0000
data_image9
_chemical_formula_structural       Cs4H4S4O8
_chemical_formula_sum              "Cs4 H4 S4 O8"
_cell_length_a       5.817371
_cell_length_b       6.411326074356613
_cell_length_c       12.038703921785974
_cell_angle_alpha    93.7344795294116
_cell_angle_beta     90.0
_cell_angle_gamma    116.97998093780937

_space_group_name_H-M_alt    "P 1"
_space_group_IT_number       1

loop_
  _space_group_symop_operation_xyz
  'x, y, z'

loop_
  _atom_site_type_symbol
  _atom_site_label
  _atom_site_symmetry_multiplicity
  _atom_site_fract_x
  _atom_site_fract_y
  _atom_site_fract_z
  _atom_site_occupancy
  Cs  Cs1       1.0  0.3866140708560124  0.9260652530938387  0.5568818441533949  1.0000
  Cs  Cs2       1.0  0.9613766516558826  0.6286292016156949  0.8521465986123076  1.0000
  Cs  Cs3       1.0  0.9416964165866375  0.670217152684927  0.005019211210310459  1.0000
  Cs  Cs4       1.0  0.5662635468761437  0.011010671238182113  0.29709604967501946  1.0000
  H   H1        1.0  0.7085421631272766  0.28627739124931395  0.779562926501967  1.0000
  H   H2        1.0  0.7182891331613064  0.8506909012794495  0.6707680970430374  1.0000
  H   H3        1.0  0.6147107169963419  0.8337578888749704  0.527370199910365  1.0000
  H   H4        1.0  0.27900684525229735  0.7090700804255903  0.06520831177476794  1.0000
  S   S1        1.0  0.9114657342433929  0.7941548526287079  0.8430490903556347  1.0000
  S   S2        1.0  0.09350115049164742  0.9903258329431992  0.6992487454263028  1.0000
  S   S3        1.0  0.522188769566128  0.7382996519299923  0.9191330509274849  1.0000
  S   S4        1.0  0.8881928457412869  0.9766518332398846  0.8347933022887446  1.0000
  O   O1        1.0  0.6599740372039378  0.31825025600846857  0.6622658087508171  1.0000
  O   O2        1.0  0.9387970047237104  0.37566582392537384  0.05172863446387055  1.0000
  O   O3        1.0  0.9007867877080571  0.8106441241397988  0.8844960108981468  1.0000
  O   O4        1.0  0.35811061451386195  0.16825556944240816  0.47014896088512614  1.0000
  O   O5        1.0  0.5336360674118623  0.3780429614125751  0.05812523174699891  1.0000
  O   O6        1.0  0.2688102984102443  0.2242855930235237  0.6963551177177578  1.0000
  O   O7        1.0  0.17275975877419114  0.0032231335062533617  0.6805852198740467  1.0000
  O   O8        1.0  0.1479736352339387  0.9239058503735578  0.5559776630398119  1.0000
data_image10
_chemical_formula_structural       Cs4H4S4O8
_chemical_formula_sum              "Cs4 H4 S4 O8"
_cell_length_a       5.817371
_cell_length_b       6.411326074356613
_cell_length_c       12.038703921785974
_cell_angle_alpha    93.7344795294116
_cell_angle_beta     90.0
_cell_angle_gamma    116.97998093780937

_space_group_name_H-M_alt    "P 1"
_space_group_IT_number       1

loop_
  _space_group_symop_operation_xyz
  'x, y, z'

loop_
  _atom_site_type_symbol
  _atom_site_label
  _atom_site_symmetry_multiplicity
  _atom_site_fract_x
  _atom_site_fract_y
  _atom_site_fract_z
  _atom_site_occupancy
  Cs  Cs1       1.0  0.8856846723938361  0.9250319253187627  0.12247197303804569  1.0000
  Cs  Cs2       1.0  0.9064849659334868  0.05942719534505159  0.7496709492261289  1.0000
  Cs  Cs3       1.0  0.8528748154640198  0.46864381805062294  0.3333527259528637  1.0000
  Cs  Cs4       1.0  0.7661447516875342  0.4981955379480496  0.9737326460344775  1.0000
  H   H1        1.0  0.9158471673290478  0.9282017184887081  0.31814762990688905  1.0000
  H   H2        1.0  0.35371095687150955  0.5135054066777229  0.846555795520544  1.0000
  H   H3        1.0  0.8412604611366987  0.04022530745714903  0.6634603749262169  1.0000
  H   H4        1.0  0.7779071237891912  0.47235120460391045  0.15961589221842587  1.0000
  S   S1        1.0  0.5334943905472755  0.9507904350757599  0.3668595626950264  1.0000
  S   S2        1.0  0.8887533585220808  0.2445810604840517  0.9956947884347755  1.0000
  S   S3        1.0  0.640055053474498  0.5744527323404327  0.46911035729863215  1.0000
  S   S4        1.0  0.09723385190591216  0.9517071926602512  0.5059048249386251  1.0000
  O   O1        1.0  0.9484852077439427  0.5612129389774054  0.20450761296524433  1.0000
  O   O2        1.0  0.53804713917134  0.6006280545443587  0.6010556745077338  1.0000
  O   O3        1.0  0.740456690749852  0.6030108388914783  0.84990411590843  1.0000
  O   O4        1.0  0.34462286919006146  0.8538497736444697  0.11711615533567965  1.0000
  O   O5        1.0  0.27907314215553924  0.46040156911476515  0.05246700642828728  1.0000
  O   O6        1.0  0.5578123532468453  0.6873474027961493  0.8125258063082583  1.0000
  O   O7        1.0  0.040890411590225995  0.9593985241372138  0.9712771391496062  1.0000
  O   O8        1.0  0.4559693351620808  0.7993101327883778  0.4164243298000656  1.0000
data_image11
_chemical_formula_structural       Cs4H4S4O8
_chemical_formula_sum              "Cs4 H4 S4 O8"
_cell_length_a       5.817371
_cell_length_b       6.411326074356613
_cell_length_c       12.038703921785974
_cell_angle_alpha    93.7344795294116
_cell_angle_beta     90.0
_cell_angle_gamma    116.97998093780937

_space_group_name_H-M_alt    "P 1"
_space_group_IT_number       1

loop_
  _space_group_symop_operation_xyz
  'x, y, z'

loop_
  _atom_site_type_symbol
  _atom_site_label
  _atom_site_symmetry_multiplicity
  _atom_site_fract_x
  _atom_site_fract_y
  _atom_site_fract_z
  _atom_site_occupancy
  Cs  Cs1       1.0  0.0995982619933784  0.18535712407901883  0.47442387137562037  1.0000
  Cs  Cs2       1.0  0.9727979296003468  0.581179793109186  0.23667218897026032  1.0000
  Cs  Cs3       1.0  0.05687916837632656  0.19706638529896736  0.08702092245221138  1.0000
  Cs  Cs4       1.0  0.2682848301483318  0.10933576867682859  0.5982185119428323  1.0000
  H   H1        1.0  0.6791898372357537  0.8121202720794827  0.1395310676889494  1.0000
  H   H2        1.0  0.8609442356973886  0.6010049432516098  0.38756413385272026  1.0000
  H   H3        1.0  0.4489902933128178  0.7664452218450606  0.7253463258966804  1.0000
  H   H4        1.0  0.39323950931429863  0.21343048941344023  0.6771711967885494  1.0000
  S   S1        1.0  0.19792142510414124  0.29048970341682434  0.5872379168868065  1.0000
  S   S2        1.0  0.40978951916622464  0.19500216649612412  0.9177492733579129  1.0000
  S   S3        1.0  0.7792480569332838  0.5621297135949135  0.3900976619916037  1.0000
  S   S4        1.0  0.7082199933938682  0.44731035970471567  0.9523410253459588  1.0000
  O   O1        1.0  0.06699057319201529  0.025692339055240154  0.8684162424760871  1.0000
  O   O2        1.0  0.9020715231308714  0.5097213527187705  0.9187529530609027  1.0000
  O   O3        1.0  0.18123395671136677  0.8893299563105757  0.05570852490927791  1.0000
  O   O4        1.0  0.8281225962855387  0.8334619356319308  0.24009912565816194  1.0000
  O   O5        1.0  0.46548185945721343  0.33598498717765324  0.6108662075376472  1.0000
  O   O6        1.0  0.0990311938803643  0.026397057925350964  0.3200783682987094  1.0000
  O   O7        1.0  0.7411331388866529  0.3119848573114723  0.26314397918758914  1.0000
  O   O8        1.0  0.3293188844108954  0.37924159848626005  0.9129431403998751  1.0000
data_image12
_chemical_formula_structural       Cs4H4S4O8
_chemical_formula_sum              "Cs4 H4 S4 O8"
_cell_length_a       5.817371
_cell_length_b       6.411326074356613
_cell_length_c       12.038703921785974
_cell_angle_alpha    93.7344795294116
_cell_angle_beta     90.0
_cell_angle_gamma    116.97998093780937

_space_group_name_H-M_alt    "P 1"
_space_group_IT_number       1

loop_
  _space_group_symop_operation_xyz
  'x, y, z'

loop_
  _atom_site_type_symbol
  _atom_site_label
  _atom_site_symmetry_multiplicity
  _atom_site_fract_x
  _atom_site_fract_y
  _atom_site_fract_z
  _atom_site_occupancy
  Cs  Cs1       1.0  0.9489479251205921  0.9853327609598637  0.9332191059365869  1.0000
  Cs  Cs2       1.0  0.4532780809677206  0.9995594214706216  0.8986767044843873  1.0000
  Cs  Cs3       1.0  0.8866912703961134  0.6873612962663174  0.6510067610070109  1.0000
  Cs  Cs4       1.0  0.3293635412119329  0.3395353038213216  0.7967531932517886  1.0000
  H   H1        1.0  0.9957030742307325  0.6794082983396947  0.42847303726011887  1.0000
  H   H2        1.0  0.3641800042241812  0.42842284590005875  0.06302255019545555  1.0000
  H   H3        1.0  0.7539550536312163  0.31528515147510916  0.7381859631859697  1.0000
  H   H4        1.0  0.8880702443420887  0.41889429511502385  0.1750160832889378  1.0000
  S   S1        1.0  0.8358873575925827  0.1275521069765091  0.29626043140888214  1.0000
  S   S2        1.0  0.5291268219443737  0.9038618009653874  0.18099834601162001  1.0000
  S   S3        1.0  0.019231799989938736  0.3849482461810112  0.7719661339651793  1.0000
  S   S4        1.0  0.7813063019420952  0.05121867107664002  0.20046006684424356  1.0000
  O   O1        1.0  0.08628821885213256  0.055906828958541155  0.3036935851268936  1.0000
  O   O2        1.0  0.6491209312807769  0.47815518733114004  0.25771503057330847  1.0000
  O   O3        1.0  0.20249517785850912  0.4460304350959632  0.5763713702035602  1.0000
  O   O4        1.0  0.45535303239012137  0.38840072468155995  0.5339214761042967  1.0000
  O   O5        1.0  0.8924821392865852  0.617132443934679  0.9828197575138802  1.0000
  O   O6        1.0  0.9860517038032413  0.6548363874899223  0.28228382754605263  1.0000
  O   O7        1.0  0.8494931664317846  0.017396066803485155  0.9463885605800897  1.0000
  O   O8        1.0  0.618009555968456  0.13189885539759416  0.3581762524408987  1.0000
data_image13
_chemical_formula_structural       Cs4H4S4O8
_chemical_formula_sum              "Cs4 H4 S4 O8"
_cell_length_a       5.817371
_cell_length_b       6.411326074356613
_cell_length_c       12.038703921785974
_cell_angle_alpha    93.7344795294116
_cell_angle_beta     90.0
_cell_angle_gamma    116.97998093780937

_space_group_name_H-M_alt    "P 1"
_space_group_IT_number       1

loop_
  _space_group_symop_operation_xyz
  'x, y, z'

loop_
  _atom_site_type_symbol
  _atom_site_label
  _atom_site_symmetry_multiplicity
  _atom_site_fract_x
  _atom_site_fract_y
  _atom_site_fract_z
  _atom_site_occupancy
  Cs  Cs1       1.0  0.06424969714134932  0.6026923786848783  0.7632971977582201  1.0000
  Cs  Cs2       1.0  0.28786448593018577  0.9361543450213503  0.22428261685126927  1.0000
  Cs  Cs3       1.0  0.5922038778662682  0.868659358471632  0.8734323428943753  1.0000
  Cs  Cs4       1.0  0.9977875598124228  0.5639320712944027  0.9736095273910905  1.0000
  H   H1        1.0  0.5397357241017744  0.7295596261974424  0.7558088519144803  1.0000
  H   H2        1.0  0.8286601845175028  0.2654593847692013  0.4739595502614975  1.0000
  H   H3        1.0  0.14504878874868155  0.016578689799644053  0.2023499261122197  1.0000
  H   H4        1.0  0.5510668084025383  0.9899171679280698  0.4844343070872128  1.0000
  S   S1        1.0  0.13999850302934647  0.2550332695245743  0.7175221517682076  1.0000
  S   S2        1.0  0.546813048698823  0.8001918212976307  0.173475513671292  1.0000
  S   S3        1.0  0.7961677312850952  0.6892875954508781  0.9757584162289277  1.0000
  S   S4        1.0  0.2980856760405004  0.3464138921335689  0.440355830360204  1.0000
  O   O1        1.0  0.25446488219313323  0.11508814967237413  0.9446024263161235  1.0000
  O   O2        1.0  0.5295997955836356  0.362525399774313  0.19092081300914288  1.0000
  O   O3        1.0  0.3705083239765372  0.6509128438528933  0.19256974598829402  1.0000
  O   O4        1.0  0.6339910356036853  0.45825489168055356  0.407632437068969  1.0000
  O   O5        1.0  0.41491432063048705  0.18262373458128422  0.33118576326796756  1.0000
  O   O6        1.0  0.240285204956308  0.3095114006428048  0.45992042822763324  1.0000
  O   O7        1.0  0.4892307297559455  0.5041807307861745  0.9944978331914172  1.0000
  O   O8        1.0  0.6816891374764964  0.37692592924577184  0.5136507474962855  1.0000
data_image14
_chemical_formula_structural       Cs4H4S4O8
_chemical_formula_sum              "Cs4 H4 S4 O8"
_cell_length_a       5.817371
_cell_length_b       6.411326074356613
_cell_length_c       12.038703921785974
_cell_angle_alpha    93.7344795294116
_cell_angle_beta     90.0
_cell_angle_gamma    116.97998093780937

_space_group_name_H-M_alt    "P 1"
_space_group_IT_number       1

loop_
  _space_group_symop_operation_xyz
  'x, y, z'

loop_
  _atom_site_type_symbol
  _atom_site_label
  _atom_site_symmetry_multiplicity
  _atom_site_fract_x
  _atom_site_fract_y
  _atom_site_fract_z
  _atom_site_occupancy
  Cs  Cs1       1.0  0.7121041119098663  0.28853526152670383  0.8042427193140611  1.0000
  Cs  Cs2       1.0  0.9761710872990079  0.385269411111949  0.9471229169721482  1.0000
  Cs  Cs3       1.0  0.6159396506845951  0.3605511300265789  0.945190736092627  1.0000
  Cs  Cs4       1.0  0.9497315955813974  0.21162566615385003  0.9721013912640046  1.0000
  H   H1        1.0  0.777994463336654  0.13495632633566856  0.9819046923657879  1.0000
  H   H2        1.0  0.7173426914960146  0.9213394075632095  0.9440710246562958  1.0000
  H   H3        1.0  0.21829448314383626  0.4922596518881619  0.46798944321926683  1.0000
  H   H4        1.0  0.9744942430406809  0.06872784486040473  0.2120149228721857  1.0000
  S   S1        1.0  0.8605322539806366  0.7679849565029144  0.07659478113055229  1.0000
  S   S2        1.0  0.5590861297096126  0.5344739338615909  0.7914030011452269  1.0000
  S   S3        1.0  0.27505864948034286  0.2029401734471321  0.49066902964841574  1.0000
  S   S4        1.0  0.9060722345020622  0.9858626971399644  0.3475843513151631  1.0000
  O   O1        1.0  0.5405590231530368  0.4287947795819491  0.7161944815143215  1.0000
  O   O2        1.0  0.4468928687274456  0.12250891141593456  0.9337324856314808  1.0000
  O   O3        1.0  0.9767995524452999  0.620666566645582  0.6942788054802804  1.0000
  O   O4        1.0  0.6574143042962532  0.8367723377305083  0.1443032479728572  1.0000
  O   O5        1.0  0.9567670733085833  0.4920258468191605  0.5186784014476871  1.0000
  O   O6        1.0  0.08781147480476648  0.6429722681641579  0.21415306872222573  1.0000
  O   O7        1.0  0.7157332326751202  0.281442565144971  0.5330854280036874  1.0000
  O   O8        1.0  0.1641329845879227  0.18818858277518302  0.11699085902364459  1.0000
data_image15
_chemical_formula_structural       Cs4H4S4O8
_chemical_formula_sum              "Cs4 H4 S4 O8"
_cell_length_a       5.817371
_cell_length_b       6.411326074356613
_cell_length_c       12.038703921785974
_cell_angle_alpha    93.7344795294116
_cell_angle_beta     90.0
_cell_angle_gamma    116.97998093780937

_space_group_name_H-M_alt    "P 1"
_space_group_IT_number       1

loop_
  _space_group_symop_operation_xyz
  'x, y, z'

loop_
  _atom_site_type_symbol
  _atom_site_label
  _atom_site_symmetry_multiplicity
  _atom_site_fract_x
  _atom_site_fract_y
  _atom_site_fract_z
  _atom_site_occupancy
  Cs  Cs1       1.0  0.17397651262581348  0.7107492405921221  0.4203677150653675  1.0000
  Cs  Cs2       1.0  0.8327932345564477  0.3423680395935662  0.6972471647313796  1.0000
  Cs  Cs3       1.0  0.06647001765668392  0.5377870351076126  0.008966464549303055  1.0000
  Cs  Cs4       1.0  0.2969664459815249  0.4444671363744419  0.5565123736887472  1.0000
  H   H1        1.0  0.8088137018494308  0.6064401608891785  0.1438208547187969  1.0000
  H   H2        1.0  0.9020784236490726  0.9528807252645493  0.9686608463525772  1.0000
  H   H3        1.0  0.8400734402239323  0.743085254682228  0.7569959632819518  1.0000
  H   H4        1.0  0.7018613647669554  0.8447293937206268  0.6533571546897292  1.0000
  S   S1        1.0  0.15843335539102554  0.32532812654972076  0.16062946245074272  1.0000
  S   S2        1.0  0.0983597226004349  0.9561085583991371  0.04556220254744403  1.0000
  S   S3        1.0  0.13197475671768188  0.2176704853773117  0.7765352486167103  1.0000
  S   S4        1.0  0.9781881936360151  0.5489518987233168  0.3414282198646106  1.0000
  O   O1        1.0  0.7626328603364527  0.4552738752681762  0.15278760947649062  1.0000
  O   O2        1.0  0.2475202614441514  0.7262375392019749  0.7989642517641187  1.0000
  O   O3        1.0  0.5797644595731981  0.651027743188024  0.3499373997110524  1.0000
  O   O4        1.0  0.35453978544683196  0.45219067053403705  0.9475211385870352  1.0000
  O   O5        1.0  0.42382118810201064  0.5279128230758943  0.32975282639745274  1.0000
  O   O6        1.0  0.7709555798210204  0.11048658075742424  0.882358540489804  1.0000
  O   O7        1.0  0.4546344398986548  0.20591825945302844  0.6942025066819042  1.0000
  O   O8        1.0  0.32122753851581365  0.1872096196602797  0.015582963955239393  1.0000
data_image16
_chemical_formula_structural       Cs4H4S4O8
_chemical_formula_sum              "Cs4 H4 S4 O8"
_cell_length_a       5.817371
_cell_length_b       6.411326074356613
_cell_length_c       12.038703921785974
_cell_angle_alpha    93.7344795294116
_cell_angle_beta     90.0
_cell_angle_gamma    116.97998093780937

_space_group_name_H-M_alt    "P 1"
_space_group_IT_number       1

loop_
  _space_group_symop_operation_xyz
  'x, y, z'

loop_
  _atom_site_type_symbol
  _atom_site_label
  _atom_site_symmetry_multiplicity
  _atom_site_fract_x
  _atom_site_fract_y
  _atom_site_fract_z
  _atom_site_occupancy
  Cs  Cs1       1.0  0.6703792130574584  0.14854939095675945  0.218248259043321  1.0000
  Cs  Cs2       1.0  0.8814261664811056  0.008886872790753841  0.4560102797258878  1.0000
  Cs  Cs3       1.0  0.2952118441462517  0.42322947457432747  0.2562766298651695  1.0000
  Cs  Cs4       1.0  0.3533575468463823  0.8001412653829902  0.7036973135400331  1.0000
  H   H1        1.0  0.008209805091610178  0.3779828445985913  0.9422840576153249  1.0000
  H   H2        1.0  0.4490954987704754  0.37405388057231903  0.5442507639527321  1.0000
  H   H3        1.0  0.6740675494074821  0.47351583919953555  0.6584694172488526  1.0000
  H   H4        1.0  0.39405220188200474  0.5484338379465044  0.377495214343071  1.0000
  S   S1        1.0  0.7192367315292358  0.17815731465816498  0.8692211173474789  1.0000
  S   S2        1.0  0.06593183215591125  0.09634274890413508  0.6292309132841183  1.0000
  S   S3        1.0  0.07745625823736191  0.39428189396858215  0.26875033148098737  1.0000
  S   S4        1.0  0.6581867025233805  0.05261740065179765  0.7420281164813787  1.0000
  O   O1        1.0  0.16805326333269477  0.5913791148923337  0.18456772146782896  1.0000
  O   O2        1.0  0.36855432810261846  0.9272789191454649  0.9481156582478434  1.0000
  O   O3        1.0  0.8834582216804847  0.14912179982638918  0.06856598510057665  1.0000
  O   O4        1.0  0.8566685990954284  0.10816679132403806  0.795310107700061  1.0000
  O   O5        1.0  0.5962289581075311  0.897001420671586  0.47337762343522627  1.0000
  O   O6        1.0  0.5838052512845024  0.4377114325761795  0.2393265615683049  1.0000
  O   O7        1.0  0.46162837801966816  0.029318558983504772  0.4139461778686382  1.0000
  O   O8        1.0  0.2660914818989113  0.4625451117171906  0.28008294192841277  1.0000
data_image17
_chemical_formula_structural       Cs4H4S4O8
_chemical_formula_sum              "Cs4 H4 S4 O8"
_cell_length_a       5.817371
_cell_length_b       6.411326074356613
_cell_length_c       12.038703921785974
_cell_angle_alpha    93.7344795294116
_cell_angle_beta     90.0
_cell_angle_gamma    116.97998093780937

_space_group_name_H-M_alt    "P 1"
_space_group_IT_number       1

loop_
  _space_group_symop_operation_xyz
  'x, y, z'

loop_
  _atom_site_type_symbol
  _atom_site_label
  _atom_site_symmetry_multiplicity
  _atom_site_fract_x
  _atom_site_fract_y
  _atom_site_fract_z
  _atom_site_occupancy
  Cs  Cs1       1.0  0.33554677851498127  0.6658019796013832  0.7399962146300822  1.0000
  Cs  Cs2       1.0  0.7648432537389454  0.09836402343353257  0.9944468414687435  1.0000
  Cs  Cs3       1.0  0.5441407822072506  0.07104554772377014  0.9804593417793512  1.0000
  Cs  Cs4       1.0  0.4840141392487567  0.4578295738228917  0.3403626699000597  1.0000
  H   H1        1.0  0.46390959760174155  0.17615619814023376  0.7887434372678399  1.0000
  H   H2        1.0  0.8148927390575409  0.5377595610916615  0.4757322035729885  1.0000
  H   H3        1.0  0.9379862993955612  0.8214289932511747  0.9128882442601025  1.0000
  H   H4        1.0  0.2978647188283503  0.5513257458806038  0.33055729139596224  1.0000
  S   S1        1.0  0.8839536607265472  0.9972379356622696  0.06851062178611755  1.0000
  S   S2        1.0  0.4235608269809745  0.8301159761322197  0.93612524566106  1.0000
  S   S3        1.0  0.6412722766399384  0.9155478775501251  0.3282398983137682  1.0000
  S   S4        1.0  0.9361177906394005  0.37911371793597937  0.29987987596541643  1.0000
  O   O1        1.0  0.6983462257776409  0.8182077533565462  0.263190194514209  1.0000
  O   O2        1.0  0.2915284573100507  0.49852576293051243  0.5133235158864409  1.0000
  O   O3        1.0  0.327151185949333  0.5145280528377043  0.5999204766048933  1.0000
  O   O4        1.0  0.5187911846296629  0.59570037946105  0.14952832309063524  1.0000
  O   O5        1.0  0.46553370263427496  0.5099082208180334  0.8002750736604867  1.0000
  O   O6        1.0  0.013827152084559202  0.2523173834197223  0.1962561461259611  1.0000
  O   O7        1.0  0.4241128551075235  0.5527029861696064  0.37572993437061086  1.0000
  O   O8        1.0  0.3940478324657306  0.49576261453330517  0.013171623224479845  1.0000
data_image18
_chemical_formula_structural       Cs4H4S4O8
_chemical_formula_sum              "Cs4 H4 S4 O8"
_cell_length_a       5.817371
_cell_length_b       6.411326074356613
_cell_length_c       12.038703921785974
_cell_angle_alpha    93.7344795294116
_cell_angle_beta     90.0
_cell_angle_gamma    116.97998093780937

_space_group_name_H-M_alt    "P 1"
_space_group_IT_number       1

loop_
  _space_group_symop_operation_xyz
  'x, y, z'

loop_
  _atom_site_type_symbol
  _atom_site_label
  _atom_site_symmetry_multiplicity
  _atom_site_fract_x
  _atom_site_fract_y
  _atom_site_fract_z
  _atom_site_occupancy
  Cs  Cs1       1.0  0.9344205558300018  0.9308673907071352  0.8221748452633619  1.0000
  Cs  Cs2       1.0  0.8134391769417562  0.026090754341566935  0.18677512068097712  1.0000
  Cs  Cs3       1.0  0.20922492630779743  0.24209599569439888  0.6995310885831714  1.0000
  Cs  Cs4       1.0  0.5579413862433285  0.7776391582738142  0.8605226865620352  1.0000
  H   H1        1.0  0.7978938487358391  0.14618092868477106  0.8473984303418547  1.0000
  H   H2        1.0  0.7279543504118919  0.6212381571531296  0.03417995199561119  1.0000
  H   H3        1.0  0.8450430631637573  0.555319856852293  0.9147315006703138  1.0000
  H   H4        1.0  0.8516385546972742  0.14554926380515099  0.05535167641937733  1.0000
  S   S1        1.0  0.268456369638443  0.9641599357128143  0.5151255540549755  1.0000
  S   S2        1.0  0.17985881690401584  0.0150491212552879  0.7952305043436354  1.0000
  S   S3        1.0  0.7129108235239983  0.9144388809800148  0.6841124279890209  1.0000
  S   S4        1.0  0.8300152397714555  0.23104029358364642  0.14745755773037672  1.0000
  O   O1        1.0  0.036835694685578346  0.7254598746076226  0.46204743092675926  1.0000
  O   O2        1.0  0.25802657357417047  0.7403441704809666  0.9424320082180202  1.0000
  O   O3        1.0  0.19237822870491073  0.2207979679951677  0.5686233366723172  1.0000
  O   O4        1.0  0.4614748655731091  0.1270749883260578  0.18611822125967592  1.0000
  O   O5        1.0  0.7171942540444434  0.20529387251008302  0.6774728785085244  1.0000
  O   O6        1.0  0.8315974929137155  0.8641081645619124  0.878304741519969  1.0000
  O   O7        1.0  0.33796091144904494  0.0463519471231848  0.832271229417529  1.0000
  O   O8        1.0  0.9018360308837146  0.580134223389905  0.26301663828780875  1.0000
data_image19
_chemical_formula_structural       Cs4H4S4O8
_chemical_formula_sum              "Cs4 H4 S4 O8"
_cell_length_a       5.817371
_cell_length_b       6.411326074356613
_cell_length_c       12.038703921785974
_cell_angle_alpha    93.7344795294116
_cell_angle_beta     90.0
_cell_angle_gamma    116.97998093780937

_space_group_name_H-M_alt    "P 1"
_space_group_IT_number       1

loop_
  _space_group_symop_operation_xyz
  'x, y, z'

loop_
  _atom_site_type_symbol
  _atom_site_label
  _atom_site_symmetry_multiplicity
  _atom_site_fract_x
  _atom_site_fract_y
  _atom_site_fract_z
  _atom_site_occupancy
  Cs  Cs1       1.0  0.0873658237978816  0.24986140057444572  0.525026576127857  1.0000
  Cs  Cs2       1.0  0.9444771258858964  0.8141192596813198  0.8266241124802036  1.0000
  Cs  Cs3       1.0  0.39310876093804836  0.861172292381525  0.9860797291621566  1.0000
  Cs  Cs4       1.0  0.13926985731814057  0.02792323201720137  0.8428673555608839  1.0000
  H   H1        1.0  0.03842156799510121  0.8772007972002029  0.7071362836286426  1.0000
  H   H2        1.0  0.34889985248446465  0.04963836446404457  0.5742332451045513  1.0000
  H   H3        1.0  0.7686822935938835  0.1987146893516183  0.005222806707024574  1.0000
  H   H4        1.0  0.8309220141964033  0.2040262296795845  0.4556741416454315  1.0000
  S   S1        1.0  0.19909203052520752  0.6140610426664352  0.6214013360440731  1.0000
  S   S2        1.0  0.187193114310503  0.3906384430156322  0.5023098042147467  1.0000
  S   S3        1.0  0.7454801499843597  0.052684083580970764  0.624548081192188  1.0000
  S   S4        1.0  0.18897280283272266  0.5047888269182295  0.3640917278826237  1.0000
  O   O1        1.0  0.798627648036927  0.7901891495566815  0.25639634365506936  1.0000
  O   O2        1.0  0.007096715737134218  0.3043344262987375  0.9394601795356721  1.0000
  O   O3        1.0  0.2669078971375711  0.7144065149768721  0.08333407707687002  1.0000
  O   O4        1.0  0.3278270219452679  0.8182237903820351  0.990292162518017  1.0000
  O   O5        1.0  0.9940086060669273  0.06519342871615663  0.5373922261806001  1.0000
  O   O6        1.0  0.03315646818373352  0.794780531199649  0.6915281072142534  1.0000
  O   O7        1.0  0.33107637939974666  0.326908226008527  0.30052724928827956  1.0000
  O   O8        1.0  0.7754564307397231  0.5137026331503876  0.18924450280610472  1.0000
data_image20
_chemical_formula_structural       Cs4H4S4O8
_chemical_formula_sum              "Cs4 H4 S4 O8"
_cell_length_a       5.817371
_cell_length_b       6.411326074356613
_cell_length_c       12.038703921785974
_cell_angle_alpha    93.7344795294116
_cell_angle_beta     90.0
_cell_angle_gamma    116.97998093780937

_space_group_name_H-M_alt    "P 1"
_space_group_IT_number       1

loop_
  _space_group_symop_operation_xyz
  'x, y, z'

loop_
  _atom_site_type_symbol
  _atom_site_label
  _atom_site_symmetry_multiplicity
  _atom_site_fract_x
  _atom_site_fract_y
  _atom_site_fract_z
  _atom_site_occupancy
  Cs  Cs1       1.0  0.4531636890023947  0.4650113843381405  0.026867557549849153  1.0000
  Cs  Cs2       1.0  0.9655430756974965  0.20348930518957786  0.6854315284617769  1.0000
  Cs  Cs3       1.0  0.5470815375447273  0.24056360125541687  0.25479776319116354  1.0000
  Cs  Cs4       1.0  0.2837225333787501  0.8914047076541465  0.04543344856938347  1.0000
  H   H1        1.0  0.8310405132360756  0.38048805040307343  0.433313951944001  1.0000
  H   H2        1.0  0.36522005684673786  0.44410576298832893  0.621264785528183  1.0000
  H   H3        1.0  0.4125421829521656  0.1064172675833106  0.6568916887044907  1.0000
  H   H4        1.0  0.09664972801692784  0.9130672104656696  0.9062597993761301  1.0000
  S   S1        1.0  0.7200370281934738  0.18411174416542053  0.9314577803015709  1.0000
  S   S2        1.0  0.713181777857244  0.8668383788281062  0.5149234269047156  1.0000
  S   S3        1.0  0.9088169485330582  0.9664061591029167  0.4127877444261685  1.0000
  S   S4        1.0  0.5457004141062498  0.6026566289365292  0.7378277033567429  1.0000
  O   O1        1.0  0.25282710138708353  0.3036310321185738  0.18066985921905143  1.0000
  O   O2        1.0  0.9624438139144331  0.5936391744762659  0.060182925779372454  1.0000
  O   O3        1.0  0.2755484230001457  0.7724494735011831  0.5900915152451489  1.0000
  O   O4        1.0  0.9544158368371427  0.06470278685446829  0.4652900554938242  1.0000
  O   O5        1.0  0.5029278548317961  0.2055866279406473  0.0908998029851773  1.0000
  O   O6        1.0  0.6113246065797284  0.9782767435535789  0.25187507894588634  1.0000
  O   O7        1.0  0.6410359810106456  0.46708171418868005  0.9483026145608164  1.0000
  O   O8        1.0  0.03249220986617729  0.18803302868036553  0.4493759681809024  1.0000
data_image21
_chemical_formula_structural       Cs4H4S4O8
_chemical_formula_sum              "Cs4 H4 S4 O8"
_cell_length_a       5.817371
_cell_length_b       6.411326074356613
_cell_length_c       12.038703921785974
_cell_angle_alpha    93.7344795294116
_cell_angle_beta     90.0
_cell_angle_gamma    116.97998093780937

_space_group_name_H-M_alt    "P 1"
_space_group_IT_number       1

loop_
  _space_group_symop_operation_xyz
  'x, y, z'

loop_
  _atom_site_type_symbol
  _atom_site_label
  _atom_site_symmetry_multiplicity
  _atom_site_fract_x
  _atom_site_fract_y
  _atom_site_fract_z
  _atom_site_occupancy
  Cs  Cs1       1.0  0.2287911744788289  0.3062628451734781  0.3204713244922459  1.0000
  Cs  Cs2       1.0  0.13281836977694184  0.20782577397767454  0.23859240832098294  1.0000
  Cs  Cs3       1.0  0.473344624042511  0.007471799850463867  0.9145553912967443  1.0000
  Cs  Cs4       1.0  0.16561185847967863  0.6538765086443163  0.7065881772432476  1.0000
  H   H1        1.0  0.03665977716445923  0.9246652119327337  0.03627647366374731  1.0000
  H   H2        1.0  0.12644627876579762  0.12886973097920418  0.4103020466864109  1.0000
  H   H3        1.0  0.8671676404774189  0.5793416742235422  0.6968962289392948  1.0000
  H   H4        1.0  0.43553458619862795  0.913938358426094  0.8095283545553684  1.0000
  S   S1        1.0  0.5961257070302963  0.4828907549381256  0.2651284337043762  1.0000
  S   S2        1.0  0.31656725192442536  0.1140531562268734  0.6737152669811621  1.0000
  S   S3        1.0  0.21533967554569244  0.6664601787924767  0.6901038911310025  1.0000
  S   S4        1.0  0.8914279360324144  0.8893329908605665  0.5743004363030195  1.0000
  O   O1        1.0  0.35670226835645735  0.467193650547415  0.9065720254729968  1.0000
  O   O2        1.0  0.2803958225995302  0.9685190841555595  0.46248964918777347  1.0000
  O   O3        1.0  0.26901425747200847  0.19132639217423275  0.7180776132081519  1.0000
  O   O4        1.0  0.3807370914146304  0.9105341418180615  0.19702166656497866  1.0000
  O   O5        1.0  0.5500615615746938  0.3424289209069684  0.2816902267906016  1.0000
  O   O6        1.0  0.6905738569330424  0.22253644024021924  0.23755443969275802  1.0000
  O   O7        1.0  0.517189659178257  0.4077648324891925  0.8546723009785637  1.0000
  O   O8        1.0  0.35942000965587795  0.793943097232841  0.8372988283226732  1.0000
data_image22
_chemical_formula_structural       Cs4H4S4O8
_chemical_formula_sum              "Cs4 H4 S4 O8"
_cell_length_a       5.817371
_cell_length_b       6.411326074356613
_cell_length_c       12.038703921785974
_cell_angle_alpha    93.7344795294116
_cell_angle_beta     90.0
_cell_angle_gamma    116.97998093780937

_space_group_name_H-M_alt    "P 1"
_space_group_IT_number       1

loop_
  _space_group_symop_operation_xyz
  'x, y, z'

loop_
  _atom_site_type_symbol
  _atom_site_label
  _atom_site_symmetry_multiplicity
  _atom_site_fract_x
  _atom_site_fract_y
  _atom_site_fract_z
  _atom_site_occupancy
  Cs  Cs1       1.0  0.494787247851491  0.3987732343375683  0.5315171186812222  1.0000
  Cs  Cs2       1.0  0.883259663474746  0.6561732951668091  0.031501629411650356  1.0000
  Cs  Cs3       1.0  0.37488730624318123  0.7769083231687546  0.23792925290763378  1.0000
  Cs  Cs4       1.0  0.5609849146567285  0.8872857599053532  0.46551679028198123  1.0000
  H   H1        1.0  0.3337194621562958  0.5641508386579517  0.8634545649401844  1.0000
  H   H2        1.0  0.39710290916264057  0.3323359228670597  0.8536263145506382  1.0000
  H   H3        1.0  0.2674894295632839  0.5088011492043734  0.7302797045558691  1.0000
  H   H4        1.0  0.3622117624618113  0.42627211287617683  0.9156471230089664  1.0000
  S   S1        1.0  0.9927262514829636  0.8967430144548416  0.8999737612903118  1.0000
  S   S2        1.0  0.4890686646103859  0.4424218274652958  0.861404525116086  1.0000
  S   S3        1.0  0.7507979013025761  0.2078223153948784  0.5043740910477936  1.0000
  S   S4        1.0  0.6754623679444194  0.5756861509289593  0.9484273111447692  1.0000
  O   O1        1.0  0.9022420442197472  0.6565165400970727  0.10731304151704535  1.0000
  O   O2        1.0  0.5831881696358323  0.6073764823377132  0.4943888299167156  1.0000
  O   O3        1.0  0.44141086761374027  0.2842725401860662  0.9008536006585928  1.0000
  O   O4        1.0  0.38836131105199456  0.05200995272025466  0.8002283149398863  1.0000
  O   O5        1.0  0.015773176273796707  0.5809360695420764  0.37762933294015966  1.0000
  O   O6        1.0  0.9906851693522185  0.9023242879193276  0.9727728314464912  1.0000
  O   O7        1.0  0.33530267560854554  0.06256681944068987  0.9607083225855604  1.0000
  O   O8        1.0  0.14922234794357792  0.4120149801019579  0.5826235986532993  1.0000
data_image23
_chemical_formula_structural       Cs4H4S4O8
_chemical_formula_sum              "Cs4 H4 S4 O8"
_cell_length_a       5.817371
_cell_length_b       6.411326074356613
_cell_length_c       12.038703921785974
_cell_angle_alpha    93.7344795294116
_cell_angle_beta     90.0
_cell_angle_gamma    116.97998093780937

_space_group_name_H-M_alt    "P 1"
_space_group_IT_number       1

loop_
  _space_group_symop_operation_xyz
  'x, y, z'

loop_
  _atom_site_type_symbol
  _atom_site_label
  _atom_site_symmetry_multiplicity
  _atom_site_fract_x
  _atom_site_fract_y
  _atom_site_fract_z
  _atom_site_occupancy
  Cs  Cs1       1.0  0.3573840968310833  0.9067666418850422  0.9094995863270015  1.0000
  Cs  Cs2       1.0  0.06214690301567316  0.3856463129632175  0.8635598334076349  1.0000
  Cs  Cs3       1.0  0.49118444323539734  0.48733193427324295  0.9528528032824397  1.0000
  Cs  Cs4       1.0  0.4614168636035174  0.31025747396051884  0.13652505523350555  1.0000
  H   H1        1.0  0.7186717940494418  0.4234508245717734  0.1795446928590536  1.0000
  H   H2        1.0  0.8377851899713278  0.3081369511783123  0.6668693795800209  1.0000
  H   H3        1.0  0.04994488134980202  0.27530086785554886  0.7450338639318943  1.0000
  H   H4        1.0  0.14575757505372167  0.5978095643222332  0.49431237019598484  1.0000
  S   S1        1.0  0.7742932736873627  0.28332260251045227  0.5371502377092838  1.0000
  S   S2        1.0  0.5296915639191866  0.6705065164715052  0.6300410181283951  1.0000
  S   S3        1.0  0.9600903987884521  0.36830583959817886  0.8828806821256876  1.0000
  S   S4        1.0  0.979849616996944  0.03254514164291322  0.6441933903843164  1.0000
  O   O1        1.0  0.07157003926113248  0.9240091294050217  0.5714058669400401  1.0000
  O   O2        1.0  0.04486506665125489  0.8706685900688171  0.20544933481141925  1.0000
  O   O3        1.0  0.03219544573221356  0.19070370902772993  0.34638686654216144  1.0000
  O   O4        1.0  0.6612211270257831  0.9965231060050428  0.7029298410052434  1.0000
  O   O5        1.0  0.22347832401283085  0.01808189693838358  0.5896972883838316  1.0000
  O   O6        1.0  0.8358745161676779  0.015268848044797778  0.1572518132161349  1.0000
  O   O7        1.0  0.7562944702804089  0.3932106240245048  0.5036581824533641  1.0000
  O   O8        1.0  0.832239388502785  0.4663637882331386  0.967755862584454  1.0000
data_image24
_chemical_formula_structural       Cs4H4S4O8
_chemical_formula_sum              "Cs4 H4 S4 O8"
_cell_length_a       5.817371
_cell_length_b       6.411326074356613
_cell_length_c       12.038703921785974
_cell_angle_alpha    93.7344795294116
_cell_angle_beta     90.0
_cell_angle_gamma    116.97998093780937

_space_group_name_H-M_alt    "P 1"
_space_group_IT_number       1

loop_
  _space_group_symop_operation_xyz
  'x, y, z'

loop_
  _atom_site_type_symbol
  _atom_site_label
  _atom_site_symmetry_multiplicity
  _atom_site_fract_x
  _atom_site_fract_y
  _atom_site_fract_z
  _atom_site_occupancy
  Cs  Cs1       1.0  0.9032000591978431  0.12406489253044128  0.33360258117318153  1.0000
  Cs  Cs2       1.0  0.2999532393878326  0.8270544362603687  0.1636063409241615  1.0000
  Cs  Cs3       1.0  0.3768939934670925  0.5182086117565632  0.6866777134127915  1.0000
  Cs  Cs4       1.0  0.7205477475654334  0.08414340438321233  0.730832953035133  1.0000
  H   H1        1.0  0.4981981720775366  0.47952615236863494  0.7838072425220162  1.0000
  H   H2        1.0  0.41300364024937153  0.17358606308698654  0.4375833757221699  1.0000
  H   H3        1.0  0.9757157750427723  0.7890131855383515  0.8312361538410187  1.0000
  H   H4        1.0  0.17101232334971428  0.13997381553053856  0.9672926822677255  1.0000
  S   S1        1.0  0.9256185591220856  0.46985095739364624  0.4779258370399475  1.0000
  S   S2        1.0  0.16502303257584572  0.14430567249655724  0.7040689983405173  1.0000
  S   S3        1.0  0.7534488439559937  0.19461768120527267  0.23095192667096853  1.0000
  S   S4        1.0  0.6255594305694103  0.24058911600150168  0.9013847094029188  1.0000
  O   O1        1.0  0.5989267686381936  0.9409085705410689  0.34846203273627907  1.0000
  O   O2        1.0  0.9299887791275978  0.7971518896520138  0.4249559564050287  1.0000
  O   O3        1.0  0.5027883736183867  0.06624160951469094  0.7835272928641643  1.0000
  O   O4        1.0  0.60939776385203  0.8056623158045113  0.017983744386583567  1.0000
  O   O5        1.0  0.915898040504544  0.003432667930610478  0.6310868696309626  1.0000
  O   O6        1.0  0.5265316365694162  0.07397129572927952  0.26358499517664313  1.0000
  O   O7        1.0  0.417945243883878  0.9319006951118354  0.45662873261608183  1.0000
  O   O8        1.0  0.3704244546534028  0.38499244285048917  0.20590753310534637  1.0000
data_image25
_chemical_formula_structural       Cs4H4S4O8
_chemical_formula_sum              "Cs4 H4 S4 O8"
_cell_length_a       5.817371
_cell_length_b       6.411326074356613
_cell_length_c       12.038703921785974
_cell_angle_alpha    93.7344795294116
_cell_angle_beta     90.0
_cell_angle_gamma    116.97998093780937

_space_group_name_H-M_alt    "P 1"
_space_group_IT_number       1

loop_
  _space_group_symop_operation_xyz
  'x, y, z'

loop_
  _atom_site_type_symbol
  _atom_site_label
  _atom_site_symmetry_multiplicity
  _atom_site_fract_x
  _atom_site_fract_y
  _atom_site_fract_z
  _atom_site_occupancy
  Cs  Cs1       1.0  0.034886596724390984  0.015730489045381546  0.6260516382753849  1.0000
  Cs  Cs2       1.0  0.4703253273619339  0.5782075727474876  0.09962777342298068  1.0000
  Cs  Cs3       1.0  0.5680088140070438  0.8730154596269131  0.4563571298494935  1.0000
  Cs  Cs4       1.0  0.9443614790216088  0.7570196017622948  0.021083136030938476  1.0000
  H   H1        1.0  0.10724660661071539  0.33821859396994114  0.06372069916687906  1.0000
  H   H2        1.0  0.7950274329632521  0.29121070727705956  0.5818556696176529  1.0000
  H   H3        1.0  0.5171648766845465  0.02342306263744831  0.9506729040294886  1.0000
  H   H4        1.0  0.4608750590123236  0.22554165869951248  0.35331503115594387  1.0000
  S   S1        1.0  0.04339945316314697  0.48131269216537476  0.934564147144556  1.0000
  S   S2        1.0  0.4936694875359535  0.6207247860729694  0.7813790263608098  1.0000
  S   S3        1.0  0.07416534796357155  0.3027554377913475  0.5683245221152902  1.0000
  S   S4        1.0  0.038488212041556835  0.017369809793308377  0.051725356839597225  1.0000
  O   O1        1.0  0.7595633151941001  0.9894728607032448  0.7635837405687198  1.0000
  O   O2        1.0  0.28600529371760786  0.7009537313133478  0.03571011661551893  1.0000
  O   O3        1.0  0.2788621351355687  0.03240861545782536  0.8043294730014168  1.0000
  O   O4        1.0  0.5058119189925492  0.6087389618624002  0.5675079236971214  1.0000
  O   O5        1.0  0.9989123923332954  0.8436669367074501  0.7424009554670192  1.0000
  O   O6        1.0  0.9205531196203083  0.47739479842130095  0.8600106356316246  1.0000
  O   O7        1.0  0.5307698585093021  0.45037316379603  0.9604675044538453  1.0000
  O   O8        1.0  0.28266978431202006  0.08382723393151537  0.09896084453794174  1.0000
data_image26
_chemical_formula_structural       Cs4H4S4O8
_chemical_formula_sum              "Cs4 H4 S4 O8"
_cell_length_a       5.817371
_cell_length_b       6.411326074356613
_cell_length_c       12.038703921785974
_cell_angle_alpha    93.7344795294116
_cell_angle_beta     90.0
_cell_angle_gamma    116.97998093780937

_space_group_name_H-M_alt    "P 1"
_space_group_IT_number       1

loop_
  _space_group_symop_operation_xyz
  'x, y, z'

loop_
  _atom_site_type_symbol
  _atom_site_label
  _atom_site_symmetry_multiplicity
  _atom_site_fract_x
  _atom_site_fract_y
  _atom_site_fract_z
  _atom_site_occupancy
  Cs  Cs1       1.0  0.6494040731049608  0.8314938452094793  0.40625580539926887  1.0000
  Cs  Cs2       1.0  0.8649268937297165  0.2628873481298797  0.5638507613693946  1.0000
  Cs  Cs3       1.0  0.556547250598669  0.0509941428899765  0.9068437214009464  1.0000
  Cs  Cs4       1.0  0.6054702400579117  0.9842647564364597  0.19256059208419174  1.0000
  H   H1        1.0  0.8495379835367203  0.6401244110893458  0.6484465922694653  1.0000
  H   H2        1.0  0.16141502186655998  0.7096257247030735  0.7658227011561394  1.0000
  H   H3        1.0  0.10606376081705093  0.08551716431975365  0.5971119236201048  1.0000
  H   H4        1.0  0.11239877250045538  0.362799808382988  0.9123220480978489  1.0000
  S   S1        1.0  0.7338041365146637  0.41256821155548096  0.9561969712376595  1.0000
  S   S2        1.0  0.060573697090148926  0.7327247057110071  0.5578523795120418  1.0000
  S   S3        1.0  0.7407263033092022  0.08727865666151047  0.4509895881637931  1.0000
  S   S4        1.0  0.5721033848822117  0.5249273832887411  0.4976511662825942  1.0000
  O   O1        1.0  0.5831989548751153  0.6533189825713634  0.6142441510455683  1.0000
  O   O2        1.0  0.05459723132662475  0.8705087900161743  0.8185028866864741  1.0000
  O   O3        1.0  0.4436835254309699  0.9040845565032214  0.28030766811571084  1.0000
  O   O4        1.0  0.5094443112611771  0.8892543560359627  0.49444567237515  1.0000
  O   O5        1.0  0.2346669994367403  0.23064432007959113  0.43204334101756103  1.0000
  O   O6        1.0  0.08133034463389777  0.42311093176249415  0.798400939849671  1.0000
  O   O7        1.0  0.3480000928975642  0.7637265375815332  0.10462797060608864  1.0000
  O   O8        1.0  0.7197958871547598  0.7823717248393223  0.6778193404024933  1.0000
data_image27
_chemical_formula_structural       Cs4H4S4O8
_chemical_formula_sum              "Cs4 H4 S4 O8"
_cell_length_a       5.817371
_cell_length_b       6.411326074356613
_cell_length_c       12.038703921785974
_cell_angle_alpha    93.7344795294116
_cell_angle_beta     90.0
_cell_angle_gamma    116.97998093780937

_space_group_name_H-M_alt    "P 1"
_space_group_IT_number       1

loop_
  _space_group_symop_operation_xyz
  'x, y, z'

loop_
  _atom_site_type_symbol
  _atom_site_label
  _atom_site_symmetry_multiplicity
  _atom_site_fract_x
  _atom_site_fract_y
  _atom_site_fract_z
  _atom_site_occupancy
  Cs  Cs1       1.0  0.6757015269249678  0.25068158749490976  0.45853654062375426  1.0000
  Cs  Cs2       1.0  0.7045158806722611  0.3697350498405285  0.5424629824933618  1.0000
  Cs  Cs3       1.0  0.12377818301320076  0.8871496617794037  0.9026738861575723  1.0000
  Cs  Cs4       1.0  0.6218008184805512  0.08125252556055784  0.8265863496344537  1.0000
  H   H1        1.0  0.00895032100379467  0.5948124491842464  0.7840384014416486  1.0000
  H   H2        1.0  0.7907895632088184  0.9508563093841076  0.9900877252221107  1.0000
  H   H3        1.0  0.7848674207925797  0.2258373759686947  0.23979775421321392  1.0000
  H   H4        1.0  0.953802996315062  0.5451527647674084  0.5567984888330102  1.0000
  S   S1        1.0  0.016925305128097534  0.8437821269035339  0.5444776006042957  1.0000
  S   S2        1.0  0.7880747616291046  0.7802769988775253  0.9486836204305291  1.0000
  S   S3        1.0  0.44162053242325783  0.2452697604894638  0.19918901845812798  1.0000
  S   S4        1.0  0.8926156610250473  0.6115450821816921  0.12865035980939865  1.0000
  O   O1        1.0  0.1918793150689453  0.5002929109614342  0.4672291894676164  1.0000
  O   O2        1.0  0.8553083806764334  0.4223082773387432  0.011262905085459352  1.0000
  O   O3        1.0  0.04378871258813888  0.5822887141257524  0.4313048065814655  1.0000
  O   O4        1.0  0.9080434711650014  0.5688360477797687  0.8709486189763993  1.0000
  O   O5        1.0  0.2145977772815968  0.13150692151975818  0.3524980841903016  1.0000
  O   O6        1.0  0.19620616830070503  0.013397926581092179  0.4394255842198618  1.0000
  O   O7        1.0  0.967067135963589  0.9835001861210912  0.8666992119979113  1.0000
  O   O8        1.0  0.48438164772232994  0.6503995874663815  0.47740022354992107  1.0000
data_image28
_chemical_formula_structural       Cs4H4S4O8
_chemical_formula_sum              "Cs4 H4 S4 O8"
_cell_length_a       5.817371
_cell_length_b       6.411326074356613
_cell_length_c       12.038703921785974
_cell_angle_alpha    93.7344795294116
_cell_angle_beta     90.0
_cell_angle_gamma    116.97998093780937

_space_group_name_H-M_alt    "P 1"
_space_group_IT_number       1

loop_
  _space_group_symop_operation_xyz
  'x, y, z'

loop_
  _atom_site_type_symbol
  _atom_site_label
  _atom_site_symmetry_multiplicity
  _atom_site_fract_x
  _atom_site_fract_y
  _atom_site_fract_z
  _atom_site_occupancy
  Cs  Cs1       1.0  0.3482677973806858  0.6209586067125201  0.037959322216920555  1.0000
  Cs  Cs2       1.0  0.689818151644431  0.07089132349938154  0.8467468321905471  1.0000
  Cs  Cs3       1.0  0.9166323319077492  0.4636319726705551  0.39170938124880195  1.0000
  Cs  Cs4       1.0  0.6539771296083927  0.8621244542300701  0.2601701393723488  1.0000
  H   H1        1.0  0.49649815540760756  0.13714858586899936  0.7886730199679732  1.0000
  H   H2        1.0  0.1860285894945264  0.7344830334186554  0.6692771129310131  1.0000
  H   H3        1.0  0.058970242738723755  0.34588567167520523  0.5183654054999352  1.0000
  H   H4        1.0  0.2178758131340146  0.9499510936439037  0.8611364560201764  1.0000
  S   S1        1.0  0.16663438081741333  0.7887310832738876  0.941646583378315  1.0000
  S   S2        1.0  0.16902529075741768  0.7777493856847286  0.9922247701324522  1.0000
  S   S3        1.0  0.46985197998583317  0.49269355088472366  0.0560613963752985  1.0000
  S   S4        1.0  0.6178369894623756  0.21632085740566254  0.8693895717151463  1.0000
  O   O1        1.0  0.015549318864941597  0.6791911604814231  0.8686603851383552  1.0000
  O   O2        1.0  0.7272082988638431  0.310405720025301  0.09035598929040134  1.0000
  O   O3        1.0  0.07017454085871577  0.04039900773204863  0.09840919211274013  1.0000
  O   O4        1.0  0.5510442722588778  0.3077569475863129  0.9691128544509411  1.0000
  O   O5        1.0  0.03713674144819379  0.287349441612605  0.06597993231844157  1.0000
  O   O6        1.0  0.005923893710132688  0.1386476409388706  0.2012158440775238  1.0000
  O   O7        1.0  0.5535588436760008  0.8454274391988292  0.6020006630569696  1.0000
  O   O8        1.0  0.6256283522816375  0.7042377676116303  0.17377569485688582  1.0000
data_image29
_chemical_formula_structural       Cs4H4S4O8
_chemical_formula_sum              "Cs4 H4 S4 O8"
_cell_length_a       5.817371
_cell_length_b       6.411326074356613
_cell_length_c       12.038703921785974
_cell_angle_alpha    93.7344795294116
_cell_angle_beta     90.0
_cell_angle_gamma    116.97998093780937

_space_group_name_H-M_alt    "P 1"
_space_group_IT_number       1

loop_
  _space_group_symop_operation_xyz
  'x, y, z'

loop_
  _atom_site_type_symbol
  _atom_site_label
  _atom_site_symmetry_multiplicity
  _atom_site_fract_x
  _atom_site_fract_y
  _atom_site_fract_z
  _atom_site_occupancy
  Cs  Cs1       1.0  0.8237517960369587  0.7615904565900564  0.914380814647302  1.0000
  Cs  Cs2       1.0  0.9707937545608729  0.7507185614667833  0.5385459162062034  1.0000
  Cs  Cs3       1.0  0.20821617916226387  0.9872531071305275  0.24401594838127494  1.0000
  Cs  Cs4       1.0  0.16386718396097422  0.004310435615479946  0.8823117604479194  1.0000
  H   H1        1.0  0.3086938625201583  0.1966980443103239  0.19496418768540025  1.0000
  H   H2        1.0  0.32199790328741074  0.9071330912411213  0.9406682141125202  1.0000
  H   H3        1.0  0.05958123505115509  0.5849260687828064  0.5507941879332066  1.0000
  H   H4        1.0  0.9290834041312337  0.3215530291199684  0.9476781962439418  1.0000
  S   S1        1.0  0.2599097490310669  0.8646815121173859  0.6454832330346107  1.0000
  S   S2        1.0  0.9262049458920956  0.9041673541069031  0.8187388009391725  1.0000
  S   S3        1.0  0.7616126798093319  0.859283983707428  0.1814216412603855  1.0000
  S   S4        1.0  0.49870728701353073  0.03558279573917389  0.5672734430991113  1.0000
  O   O1        1.0  0.29015585174784064  0.535077624488622  0.6581797406543046  1.0000
  O   O2        1.0  0.5291881016455591  0.5529442839324474  0.44068417325615883  1.0000
  O   O3        1.0  0.7391217064578086  0.11079839814919978  0.9908492567192297  1.0000
  O   O4        1.0  0.8642139821313322  0.8831348371459171  0.8293870616471395  1.0000
  O   O5        1.0  0.21452109632082283  0.06249214173294604  0.5690478716860525  1.0000
  O   O6        1.0  0.3133051328768488  0.10626086068805307  0.9302681222325191  1.0000
  O   O7        1.0  0.11219176696613431  0.7837876095436513  0.34051248198375106  1.0000
  O   O8        1.0  0.22904206160455942  0.12512991670519114  0.18986251286696643  1.0000
data_image30
_chemical_formula_structural       Cs4H4S4O8
_chemical_formula_sum              "Cs4 H4 S4 O8"
_cell_length_a       5.817371
_cell_length_b       6.411326074356613
_cell_length_c       12.038703921785974
_cell_angle_alpha    93.7344795294116
_cell_angle_beta     90.0
_cell_angle_gamma    116.97998093780937

_space_group_name_H-M_alt    "P 1"
_space_group_IT_number       1

loop_
  _space_group_symop_operation_xyz
  'x, y, z'

loop_
  _atom_site_type_symbol
  _atom_site_label
  _atom_site_symmetry_multiplicity
  _atom_site_fract_x
  _atom_site_fract_y
  _atom_site_fract_z
  _atom_site_occupancy
  Cs  Cs1       1.0  0.2287023402750492  0.31509658601135015  0.3749966707546264  1.0000
  Cs  Cs2       1.0  0.2521409383043647  0.5308914133347571  0.25153185459203087  1.0000
  Cs  Cs3       1.0  0.7936822436749935  0.15558423474431038  0.9253593678586185  1.0000
  Cs  Cs4       1.0  0.20974443200975657  0.9926254330202937  0.5998857119120657  1.0000
  H   H1        1.0  0.7531973579898477  0.298272815416567  0.25888258626218885  1.0000
  H   H2        1.0  0.35637314012274146  0.8376178480684757  0.08519389852881432  1.0000
  H   H3        1.0  0.6501795873045921  0.7683807089924812  0.6365183759480715  1.0000
  H   H4        1.0  0.6277184383943677  0.9990955777466297  0.46559057105332613  1.0000
  S   S1        1.0  0.23733597993850708  0.2805711627006531  0.8344694301486015  1.0000
  S   S2        1.0  0.6152495322749019  0.3112565204501152  0.25047571770846844  1.0000
  S   S3        1.0  0.9687157701700926  0.8693716749548912  0.298476317897439  1.0000
  S   S4        1.0  0.4448319151997566  0.788514755666256  0.28837869223207235  1.0000
  O   O1        1.0  0.4171116144862026  0.5211013625375926  0.25008555268868804  1.0000
  O   O2        1.0  0.5238808668218553  0.6330232489854097  0.40822742180898786  1.0000
  O   O3        1.0  0.9910653712286148  0.08870145631954074  0.18481605575652793  1.0000
  O   O4        1.0  0.1241874739062041  0.9080111130606383  0.5789905085694045  1.0000
  O   O5        1.0  0.5093080305960029  0.8317209720844403  0.9130264790146612  1.0000
  O   O6        1.0  0.15287783794337884  0.8034151823958382  0.8138780815061182  1.0000
  O   O7        1.0  0.9867997597903013  0.6906128737609833  0.8319559637457132  1.0000
  O   O8        1.0  0.2607349102618173  0.8660283724311739  0.669585483148694  1.0000
data_image31
_chemical_formula_structural       Cs4H4S4O8
_chemical_formula_sum              "Cs4 H4 S4 O8"
_cell_length_a       5.817371
_cell_length_b       6.411326074356613
_cell_length_c       12.038703921785974
_cell_angle_alpha    93.7344795294116
_cell_angle_beta     90.0
_cell_angle_gamma    116.97998093780937

_space_group_name_H-M_alt    "P 1"
_space_group_IT_number       1

loop_
  _space_group_symop_operation_xyz
  'x, y, z'

loop_
  _atom_site_type_symbol
  _atom_site_label
  _atom_site_symmetry_multiplicity
  _atom_site_fract_x
  _atom_site_fract_y
  _atom_site_fract_z
  _atom_site_occupancy
  Cs  Cs1       1.0  0.4928237050771713  0.35228843055665493  0.9671117572579533  1.0000
  Cs  Cs2       1.0  0.5888561829924583  0.3179689459502697  0.9602789158816449  1.0000
  Cs  Cs3       1.0  0.3331047520041466  0.34449364989995956  0.9691885611973703  1.0000
  Cs  Cs4       1.0  0.23469590861350298  0.4382863827049732  0.02550932578742504  1.0000
  H   H1        1.0  0.010732267051935196  0.2704429589211941  0.8818216198123991  1.0000
  H   H2        1.0  0.20636376179754734  0.5628086254000664  0.6544629260897636  1.0000
  H   H3        1.0  0.7906179204583168  0.2523779571056366  0.7726679593324661  1.0000
  H   H4        1.0  0.5168442465364933  0.312996506690979  0.03481253795325756  1.0000
  S   S1        1.0  0.007404983043670654  0.476362943649292  0.17802369594573975  1.0000
  S   S2        1.0  0.8066698033362627  0.606163963675499  0.7688868138939142  1.0000
  S   S3        1.0  0.40961952693760395  0.4364735931158066  0.9569944720715284  1.0000
  S   S4        1.0  0.9956401512026787  0.11997462809085846  0.4293657001107931  1.0000
  O   O1        1.0  0.99007250322029  0.1976452525705099  0.7825054661370814  1.0000
  O   O2        1.0  0.010807900223881006  0.5500948298722506  0.32620552903972566  1.0000
  O   O3        1.0  0.8637339547276497  0.6534718130715191  0.5837920488556847  1.0000
  O   O4        1.0  0.29296005074866116  0.9736575523857027  0.15611966094002128  1.0000
  O   O5        1.0  0.4799500444205478  0.20132512084092014  0.5863025048747659  1.0000
  O   O6        1.0  0.36353588983183727  0.22997539187781513  0.2981165876844898  1.0000
  O   O7        1.0  0.24398950627073646  0.4850617880001664  0.2162511688657105  1.0000
  O   O8        1.0  0.8731719743227586  0.7382080330280587  0.18002323375549167  1.0000
data_image32
_chemical_formula_structural       Cs4H4S4O8
_chemical_formula_sum              "Cs4 H4 S4 O8"
_cell_length_a       5.817371
_cell_length_b       6.411326074356613
_cell_length_c       12.038703921785974
_cell_angle_alpha    93.7344795294116
_cell_angle_beta     90.0
_cell_angle_gamma    116.97998093780937

_space_group_name_H-M_alt    "P 1"
_space_group_IT_number       1

loop_
  _space_group_symop_operation_xyz
  'x, y, z'

loop_
  _atom_site_type_symbol
  _atom_site_label
  _atom_site_symmetry_multiplicity
  _atom_site_fract_x
  _atom_site_fract_y
  _atom_site_fract_z
  _atom_site_occupancy
  Cs  Cs1       1.0  0.34182742424309254  0.5395147781819105  0.31284045916981995  1.0000
  Cs  Cs2       1.0  0.38810695707798004  0.09365062229335308  0.8021168994018808  1.0000
  Cs  Cs3       1.0  0.4848882369697094  0.22374742478132248  0.3374102034140378  1.0000
  Cs  Cs4       1.0  0.999737293459475  0.6290790876373649  0.45634309854358435  1.0000
  H   H1        1.0  0.9727772548794746  0.022752195596694946  0.65199493477121  1.0000
  H   H2        1.0  0.6182614434510469  0.6863814759999514  0.0555354468524456  1.0000
  H   H3        1.0  0.8523442521691322  0.6193639859557152  0.17268012836575508  1.0000
  H   H4        1.0  0.148289131000638  0.12036324292421341  0.14776648301631212  1.0000
  S   S1        1.0  0.9569994807243347  0.8795937299728394  0.40406136214733124  1.0000
  S   S2        1.0  0.9462599530816078  0.5576438754796982  0.6097035799175501  1.0000
  S   S3        1.0  0.4191451817750931  0.4059380888938904  0.5822718236595392  1.0000
  S   S4        1.0  0.6950818970799446  0.3306061774492264  0.8014011825434864  1.0000
  O   O1        1.0  0.8217400615103543  0.029426218010485172  0.5226462476421148  1.0000
  O   O2        1.0  0.19621551921591163  0.5297120325267315  0.5249720267020166  1.0000
  O   O3        1.0  0.44416936160996556  0.9776371559128165  0.048483248334378004  1.0000
  O   O4        1.0  0.9871704499237239  0.9881719528930262  0.09833927499130368  1.0000
  O   O5        1.0  0.10944315849337727  0.06976864863827359  0.342866049380973  1.0000
  O   O6        1.0  0.007766528287902474  0.7347854722756892  0.9166491039795801  1.0000
  O   O7        1.0  0.9729887438006699  0.6939809615723789  0.10613647848367691  1.0000
  O   O8        1.0  0.3312166362302378  0.44834496453404427  0.8951005630660802  1.0000
data_image33
_chemical_formula_structural       Cs4H4S4O8
_chemical_formula_sum              "Cs4 H4 S4 O8"
_cell_length_a       5.817371
_cell_length_b       6.411326074356613
_cell_length_c       12.038703921785974
_cell_angle_alpha    93.7344795294116
_cell_angle_beta     90.0
_cell_angle_gamma    116.97998093780937

_space_group_name_H-M_alt    "P 1"
_space_group_IT_number       1

loop_
  _space_group_symop_operation_xyz
  'x, y, z'

loop_
  _atom_site_type_symbol
  _atom_site_label
  _atom_site_symmetry_multiplicity
  _atom_site_fract_x
  _atom_site_fract_y
  _atom_site_fract_z
  _atom_site_occupancy
  Cs  Cs1       1.0  0.8257698062807322  0.48062540777027607  0.1705110571347177  1.0000
  Cs  Cs2       1.0  0.6885545067489147  0.3577949684113264  0.5540496897883713  1.0000
  Cs  Cs3       1.0  0.5783404223620892  0.12196613475680351  0.8229091400280595  1.0000
  Cs  Cs4       1.0  0.9358026087284088  0.34353453759104013  0.9121066890656948  1.0000
  H   H1        1.0  0.6792979575693607  0.4503343580290675  0.7754407022148371  1.0000
  H   H2        1.0  0.4227744909003377  0.4088601917028427  0.2727574072778225  1.0000
  H   H3        1.0  0.8665714636445045  0.5097431093454361  0.5901664420962334  1.0000
  H   H4        1.0  0.25842929258942604  0.042067211121320724  0.8798431735485792  1.0000
  S   S1        1.0  0.7337316572666168  0.0736382007598877  0.6717041060328484  1.0000
  S   S2        1.0  0.206804059445858  0.01989831030368805  0.7256522104144096  1.0000
  S   S3        1.0  0.8411983866244555  0.07644703984260559  0.9846361428499222  1.0000
  S   S4        1.0  0.31723156571388245  0.9985468089580536  0.9686168283224106  1.0000
  O   O1        1.0  0.7827390371821821  0.34867506101727486  0.4409108734689653  1.0000
  O   O2        1.0  0.005378442350775003  0.04421682097017765  0.7454086018260568  1.0000
  O   O3        1.0  0.001438927836716175  0.24965843791142106  0.7801577983191237  1.0000
  O   O4        1.0  0.8258922367822379  0.02439523523207754  0.4715781952254474  1.0000
  O   O5        1.0  0.6252307681133971  0.5525503851531539  0.3091722992248833  1.0000
  O   O6        1.0  0.24356404808349907  0.6726899272762239  0.5152722770581022  1.0000
  O   O7        1.0  0.23892284370958805  0.4989295994164422  0.8572280183434486  1.0000
  O   O8        1.0  0.16556493507232517  0.04073651565704495  0.8434191778651439  1.0000
data_image34
_chemical_formula_structural       Cs4H4S4O8
_chemical_formula_sum              "Cs4 H4 S4 O8"
_cell_length_a       5.817371
_cell_length_b       6.411326074356613
_cell_length_c       12.038703921785974
_cell_angle_alpha    93.7344795294116
_cell_angle_beta     90.0
_cell_angle_gamma    116.97998093780937

_space_group_name_H-M_alt    "P 1"
_space_group_IT_number       1

loop_
  _space_group_symop_operation_xyz
  'x, y, z'

loop_
  _atom_site_type_symbol
  _atom_site_label
  _atom_site_symmetry_multiplicity
  _atom_site_fract_x
  _atom_site_fract_y
  _atom_site_fract_z
  _atom_site_occupancy
  Cs  Cs1       1.0  0.3449694700539112  0.9077978311106563  0.875893767690286  1.0000
  Cs  Cs2       1.0  0.4455922245979309  0.910198213532567  0.9730787621811032  1.0000
  Cs  Cs3       1.0  0.343703918159008  0.7510211877524853  0.030090705957263708  1.0000
  Cs  Cs4       1.0  0.2184895221143961  0.44891578517854214  0.6811564317904413  1.0000
  H   H1        1.0  0.47016826644539833  0.2911689421162009  0.8832910107448697  1.0000
  H   H2        1.0  0.4768019672483206  0.7576156072318554  0.4243678953498602  1.0000
  H   H3        1.0  0.738561175763607  0.15629341453313828  0.9366813190281391  1.0000
  H   H4        1.0  0.04906713590025902  0.12545280158519745  0.6411927528679371  1.0000
  S   S1        1.0  0.26861056685447693  0.6115319132804871  0.37762559205293655  1.0000
  S   S2        1.0  0.5637798458337784  0.7655002325773239  0.9039497999474406  1.0000
  S   S3        1.0  0.0003975816071033478  0.8684882447123528  0.7324390807189047  1.0000
  S   S4        1.0  0.24900102615356445  0.7349344044923782  0.41851036064326763  1.0000
  O   O1        1.0  0.35600204626098275  0.6424104077741504  0.7071719265077263  1.0000
  O   O2        1.0  0.6033008955419064  0.9660841375589371  0.19051231537014246  1.0000
  O   O3        1.0  0.17802987387403846  0.520335054025054  0.9378405677853152  1.0000
  O   O4        1.0  0.7690653199097142  0.03605033925850876  0.11540486814919859  1.0000
  O   O5        1.0  0.16797122033312917  0.41567333333659917  0.23310728452634066  1.0000
  O   O6        1.0  0.8737108737695962  0.13697420246899128  0.8743370840093121  1.0000
  O   O7        1.0  0.20720078377053142  0.7354442719370127  0.4259968316182494  1.0000
  O   O8        1.0  0.7979556533973664  0.6850169240497053  0.6891867850208655  1.0000
data_image35
_chemical_formula_structural       Cs4H4S4O8
_chemical_formula_sum              "Cs4 H4 S4 O8"
_cell_length_a       5.817371
_cell_length_b       6.411326074356613
_cell_length_c       12.038703921785974
_cell_angle_alpha    93.7344795294116
_cell_angle_beta     90.0
_cell_angle_gamma    116.97998093780937

_space_group_name_H-M_alt    "P 1"
_space_group_IT_number       1

loop_
  _space_group_symop_operation_xyz
  'x, y, z'

loop_
  _atom_site_type_symbol
  _atom_site_label
  _atom_site_symmetry_multiplicity
  _atom_site_fract_x
  _atom_site_fract_y
  _atom_site_fract_z
  _atom_site_occupancy
  Cs  Cs1       1.0  0.41822896897792816  0.18533995933830738  0.01679449947550893  1.0000
  Cs  Cs2       1.0  0.2192414365708828  0.10548456385731697  0.23628701269626617  1.0000
  Cs  Cs3       1.0  0.17867450788617134  0.3210331089794636  0.6907097911462188  1.0000
  Cs  Cs4       1.0  0.40006771497428417  0.44020639546215534  0.7201096657663584  1.0000
  H   H1        1.0  0.04658092185854912  0.6090349536389112  0.8796704104170203  1.0000
  H   H2        1.0  0.021894793957471848  0.003712652251124382  0.5853764768689871  1.0000
  H   H3        1.0  0.84489905834198  0.619875118136406  0.40478322841227055  1.0000
  H   H4        1.0  0.008262110874056816  0.2622816413640976  0.6571107488125563  1.0000
  S   S1        1.0  0.44351404905319214  0.45854178071022034  0.4589889422059059  1.0000
  S   S2        1.0  0.5764288082718849  0.35429804027080536  0.9990676390007138  1.0000
  S   S3        1.0  0.9698755312711  0.6762975975871086  0.35125723108649254  1.0000
  S   S4        1.0  0.9621311500668526  0.898902416229248  0.8294386202469468  1.0000
  O   O1        1.0  0.6126908268779516  0.20559040270745754  0.13719827588647604  1.0000
  O   O2        1.0  0.11262443382292986  0.2348419651389122  0.3012617486529052  1.0000
  O   O3        1.0  0.5521033434197307  0.538336094468832  0.7447564832400531  1.0000
  O   O4        1.0  0.9517252599471249  0.0043382225558161736  0.9061754900030792  1.0000
  O   O5        1.0  0.5775026632472873  0.8485737874580082  0.5118759327451698  1.0000
  O   O6        1.0  0.43387458100914955  0.06257526180706918  0.39519940060563385  1.0000
  O   O7        1.0  0.6894447496160865  0.41113909892737865  0.1880301907658577  1.0000
  O   O8        1.0  0.9838458464946598  0.643244915176183  0.061022752604912966  1.0000
data_image36
_chemical_formula_structural       Cs4H4S4O8
_chemical_formula_sum              "Cs4 H4 S4 O8"
_cell_length_a       5.817371
_cell_length_b       6.411326074356613
_cell_length_c       12.038703921785974
_cell_angle_alpha    93.7344795294116
_cell_angle_beta     90.0
_cell_angle_gamma    116.97998093780937

_space_group_name_H-M_alt    "P 1"
_space_group_IT_number       1

loop_
  _space_group_symop_operation_xyz
  'x, y, z'

loop_
  _atom_site_type_symbol
  _atom_site_label
  _atom_site_symmetry_multiplicity
  _atom_site_fract_x
  _atom_site_fract_y
  _atom_site_fract_z
  _atom_site_occupancy
  Cs  Cs1       1.0  0.698382381349802  0.6055426867678761  0.7802815174218267  1.0000
  Cs  Cs2       1.0  0.001423705369234085  0.4172540660947561  0.445920679718256  1.0000
  Cs  Cs3       1.0  0.7860579341650009  0.28184762969613075  0.0730353428516537  1.0000
  Cs  Cs4       1.0  0.2033800045028329  0.11654286365956068  0.08221857249736786  1.0000
  H   H1        1.0  0.43055304512381554  0.5337325232103467  0.2117671282030642  1.0000
  H   H2        1.0  0.5078308866359293  0.10939017869532108  0.7003435343503952  1.0000
  H   H3        1.0  0.13784022629261017  0.04443354159593582  0.8916792124509811  1.0000
  H   H4        1.0  0.7887113522738218  0.15120180323719978  0.3331653419882059  1.0000
  S   S1        1.0  0.04989945888519287  0.20145170390605927  0.7251489982008934  1.0000
  S   S2        1.0  0.9301403164863586  0.9732499420642853  0.9762054067105055  1.0000
  S   S3        1.0  0.947355767711997  0.9143144190311432  0.22383029200136662  1.0000
  S   S4        1.0  0.7453612610697746  0.894477404654026  0.4760601641610265  1.0000
  O   O1        1.0  0.9369987300597131  0.4384596776217222  0.009068468119949102  1.0000
  O   O2        1.0  0.7597429603338242  0.4060242958366871  0.7759422473609447  1.0000
  O   O3        1.0  0.7933152955956757  0.8814246798865497  0.2410931647173129  1.0000
  O   O4        1.0  0.08816066200233763  0.5391097334213555  0.09593182511162013  1.0000
  O   O5        1.0  0.47980207938235253  0.7176266953756567  0.18568760639755055  1.0000
  O   O6        1.0  0.8787917329464108  0.21418263367377222  0.9466387061402202  1.0000
  O   O7        1.0  0.632927842438221  0.15932525717653334  0.6191473708022386  1.0000
  O   O8        1.0  0.5737095102667809  0.07573258504271507  0.9224782799137756  1.0000
data_image37
_chemical_formula_structural       Cs4H4S4O8
_chemical_formula_sum              "Cs4 H4 S4 O8"
_cell_length_a       5.817371
_cell_length_b       6.411326074356613
_cell_length_c       12.038703921785974
_cell_angle_alpha    93.7344795294116
_cell_angle_beta     90.0
_cell_angle_gamma    116.97998093780937

_space_group_name_H-M_alt    "P 1"
_space_group_IT_number       1

loop_
  _space_group_symop_operation_xyz
  'x, y, z'

loop_
  _atom_site_type_symbol
  _atom_site_label
  _atom_site_symmetry_multiplicity
  _atom_site_fract_x
  _atom_site_fract_y
  _atom_site_fract_z
  _atom_site_occupancy
  Cs  Cs1       1.0  0.45442793145775795  0.08914860431104898  0.41030680504627526  1.0000
  Cs  Cs2       1.0  0.979786965996027  0.27783230785280466  0.09152738843113184  1.0000
  Cs  Cs3       1.0  0.7497574687004089  0.2499207891523838  0.8464932618662715  1.0000
  Cs  Cs4       1.0  0.9589873068034649  0.967661926522851  0.22904122108593583  1.0000
  H   H1        1.0  0.6457233056426048  0.47834672406315804  0.0040448373183608055  1.0000
  H   H2        1.0  0.9461689442396164  0.3832779973745346  0.7373775746673346  1.0000
  H   H3        1.0  0.08305028080940247  0.2767622321844101  0.7189923860132694  1.0000
  H   H4        1.0  0.5244571939110756  0.307820089161396  0.04258600249886513  1.0000
  S   S1        1.0  0.540723592042923  0.5245266854763031  0.04250843822956085  1.0000
  S   S2        1.0  0.8380948081612587  0.10244898498058319  0.8130198949947953  1.0000
  S   S3        1.0  0.6474453611299396  0.03534487634897232  0.818009739741683  1.0000
  S   S4        1.0  0.8640235662460327  0.39854106307029724  0.2192299086600542  1.0000
  O   O1        1.0  0.8074579969979823  0.11571159679442644  0.4757616526912898  1.0000
  O   O2        1.0  0.25900773983448744  0.7983844485133886  0.17739216843619943  1.0000
  O   O3        1.0  0.9925974336219952  0.061622557463124394  0.025860414418275468  1.0000
  O   O4        1.0  0.03708527228445746  0.7715575236361474  0.6242866123793647  1.0000
  O   O5        1.0  0.5397895016940311  0.619649998654495  0.8477952817920595  1.0000
  O   O6        1.0  0.3702495389152318  0.8347327867522836  0.20677129784598947  1.0000
  O   O7        1.0  0.7832191493362188  0.605211878195405  0.5002945964224637  1.0000
  O   O8        1.0  0.7153541406150907  0.23667269409634173  0.7697090620640665  1.0000
data_image38
_chemical_formula_structural       Cs4H4S4O8
_chemical_formula_sum              "Cs4 H4 S4 O8"
_cell_length_a       5.817371
_cell_length_b       6.411326074356613
_cell_length_c       12.038703921785974
_cell_angle_alpha    93.7344795294116
_cell_angle_beta     90.0
_cell_angle_gamma    116.97998093780937

_space_group_name_H-M_alt    "P 1"
_space_group_IT_number       1

loop_
  _space_group_symop_operation_xyz
  'x, y, z'

loop_
  _atom_site_type_symbol
  _atom_site_label
  _atom_site_symmetry_multiplicity
  _atom_site_fract_x
  _atom_site_fract_y
  _atom_site_fract_z
  _atom_site_occupancy
  Cs  Cs1       1.0  0.7761469595134258  0.44015061762183905  0.16894108802080154  1.0000
  Cs  Cs2       1.0  0.6583776883780956  0.9671915490180254  0.7282936247065663  1.0000
  Cs  Cs3       1.0  0.9752232581377029  0.941128134727478  0.2592918153386563  1.0000
  Cs  Cs4       1.0  0.0533702839165926  0.5647429209202528  0.6772366659715772  1.0000
  H   H1        1.0  0.23136595636606216  0.45089016295969486  0.05645575746893883  1.0000
  H   H2        1.0  0.04452464636415243  0.13032753206789494  0.05722367949783802  1.0000
  H   H3        1.0  0.8512841835618019  0.9072025343775749  0.3627369850873947  1.0000
  H   H4        1.0  0.5510766245424747  0.8575252145528793  0.5468915458768606  1.0000
  S   S1        1.0  0.16873064637184143  0.6005814522504807  0.30663567781448364  1.0000
  S   S2        1.0  0.9431657940149307  0.543446496129036  0.895459852181375  1.0000
  S   S3        1.0  0.6227679196745157  0.10501554608345032  0.2816711161285639  1.0000
  S   S4        1.0  0.6803419142961502  0.324273020029068  0.07348549365997314  1.0000
  O   O1        1.0  0.3617687630467117  0.9461635239422321  0.3912780883256346  1.0000
  O   O2        1.0  0.4819940901361406  0.39180722646415234  0.5099608227610588  1.0000
  O   O3        1.0  0.9654771748464555  0.6302824814338237  0.5164582592988154  1.0000
  O   O4        1.0  0.22216763749020174  0.7290743014309555  0.6431515320437029  1.0000
  O   O5        1.0  0.9572355167474598  0.23417528228310402  0.4769576860126108  1.0000
  O   O6        1.0  0.509837172459811  0.16913317260332406  0.6713554359739646  1.0000
  O   O7        1.0  0.656626237090677  0.8858451172709465  0.7924048718996346  1.0000
  O   O8        1.0  0.5856270191725343  0.45767081435769796  0.05933668033685535  1.0000
data_image39
_chemical_formula_structural       Cs4H4S4O8
_chemical_formula_sum              "Cs4 H4 S4 O8"
_cell_length_a       5.817371
_cell_length_b       6.411326074356613
_cell_length_c       12.038703921785974
_cell_angle_alpha    93.7344795294116
_cell_angle_beta     90.0
_cell_angle_gamma    116.97998093780937

_space_group_name_H-M_alt    "P 1"
_space_group_IT_number       1

loop_
  _space_group_symop_operation_xyz
  'x, y, z'

loop_
  _atom_site_type_symbol
  _atom_site_label
  _atom_site_symmetry_multiplicity
  _atom_site_fract_x
  _atom_site_fract_y
  _atom_site_fract_z
  _atom_site_occupancy
  Cs  Cs1       1.0  0.5696452930569649  0.24466440454125404  0.11696834629401565  1.0000
  Cs  Cs2       1.0  0.865378100425005  0.7159557994455099  0.46584911085665226  1.0000
  Cs  Cs3       1.0  0.01816648244857788  0.9992730766534805  0.3355920796748251  1.0000
  Cs  Cs4       1.0  0.15784718468785286  0.357987055554986  0.7249301220290363  1.0000
  H   H1        1.0  0.5467448905110359  0.48469974752515554  0.16623819526284933  1.0000
  H   H2        1.0  0.49185336101800203  0.7356977444142103  0.8869077078998089  1.0000
  H   H3        1.0  0.42175040394067764  0.5166380107402802  0.5896954629570246  1.0000
  H   H4        1.0  0.33043874241411686  0.6257698349654675  0.25977903977036476  1.0000
  S   S1        1.0  0.45263004302978516  0.5106666386127472  0.4930659383535385  1.0000
  S   S2        1.0  0.007743552327156067  0.9924144744873047  0.011238161474466324  1.0000
  S   S3        1.0  0.9289590574335307  0.4841761440038681  0.05245942622423172  1.0000
  S   S4        1.0  0.6727399826049805  0.30416154116392136  0.6066922917962074  1.0000
  O   O1        1.0  0.6544969570823014  0.3013695403933525  0.029610166791826487  1.0000
  O   O2        1.0  0.0659631541930139  0.6592544075101614  0.9154079183936119  1.0000
  O   O3        1.0  0.9841110554989427  0.21234962064772844  0.410931946898927  1.0000
  O   O4        1.0  0.26746056671254337  0.43881794856861234  0.09160281356889755  1.0000
  O   O5        1.0  0.4785990240634419  0.5859500678197946  0.9069121544016525  1.0000
  O   O6        1.0  0.5803826046176255  0.04056586977094412  0.04827112425118685  1.0000
  O   O7        1.0  0.25715205632150173  0.6147608126047999  0.5667398944497108  1.0000
  O   O8        1.0  0.6575653832405806  0.9830479165539145  0.3068091046297923  1.0000
data_image40
_chemical_formula_structural       Cs4H4S4O8
_chemical_formula_sum              "Cs4 H4 S4 O8"
_cell_length_a       5.817371
_cell_length_b       6.411326074356613
_cell_length_c       12.038703921785974
_cell_angle_alpha    93.7344795294116
_cell_angle_beta     90.0
_cell_angle_gamma    116.97998093780937

_space_group_name_H-M_alt    "P 1"
_space_group_IT_number       1

loop_
  _space_group_symop_operation_xyz
  'x, y, z'

loop_
  _atom_site_type_symbol
  _atom_site_label
  _atom_site_symmetry_multiplicity
  _atom_site_fract_x
  _atom_site_fract_y
  _atom_site_fract_z
  _atom_site_occupancy
  Cs  Cs1       1.0  0.9155683629214764  0.8551345067098737  0.773164225043729  1.0000
  Cs  Cs2       1.0  0.8704976998269558  0.10423685843124986  0.029686404392123222  1.0000
  Cs  Cs3       1.0  0.9780904538929462  0.2824960835278034  0.4978971560485661  1.0000
  Cs  Cs4       1.0  0.019483517855405807  0.27332427352666855  0.3188106529414654  1.0000
  H   H1        1.0  0.6811192780733109  0.3146826783195138  0.05056414008140564  1.0000
  H   H2        1.0  0.3640347458422184  0.8879750445485115  0.906729344278574  1.0000
  H   H3        1.0  0.1306460052728653  0.896723710000515  0.9501805976033211  1.0000
  H   H4        1.0  0.2763339839875698  0.37103887647390366  0.7999164219945669  1.0000
  S   S1        1.0  0.2162860631942749  0.09471066296100616  0.3280835524201393  1.0000
  S   S2        1.0  0.08395950496196747  0.9065107852220535  0.9547078987816349  1.0000
  S   S3        1.0  0.5963182225823402  0.21684416010975838  0.4338963199406862  1.0000
  S   S4        1.0  0.8010437786579132  0.25374679267406464  0.2175775934010744  1.0000
  O   O1        1.0  0.22468077298253775  0.09206921979784966  0.19815776706673205  1.0000
  O   O2        1.0  0.3941535501217004  0.917085338383913  0.8913543713279068  1.0000
  O   O3        1.0  0.18268470361363143  0.8218715791590512  0.5679997261031531  1.0000
  O   O4        1.0  0.3824490645201877  0.053561956621706486  0.4694892897969112  1.0000
  O   O5        1.0  0.2220272768754512  0.5897747362614609  0.2605867637321353  1.0000
  O   O6        1.0  0.17935987561941147  0.3606999721378088  0.2083852473879233  1.0000
  O   O7        1.0  0.7043356318026781  0.7259998831432313  0.3622064394876361  1.0000
  O   O8        1.0  0.9284229900222272  0.6553674496244639  0.299488621763885  1.0000
data_image41
_chemical_formula_structural       Cs4H4S4O8
_chemical_formula_sum              "Cs4 H4 S4 O8"
_cell_length_a       5.817371
_cell_length_b       6.411326074356613
_cell_length_c       12.038703921785974
_cell_angle_alpha    93.7344795294116
_cell_angle_beta     90.0
_cell_angle_gamma    116.97998093780937

_space_group_name_H-M_alt    "P 1"
_space_group_IT_number       1

loop_
  _space_group_symop_operation_xyz
  'x, y, z'

loop_
  _atom_site_type_symbol
  _atom_site_label
  _atom_site_symmetry_multiplicity
  _atom_site_fract_x
  _atom_site_fract_y
  _atom_site_fract_z
  _atom_site_occupancy
  Cs  Cs1       1.0  0.5928169582039118  0.5323928678408265  0.5819686900358647  1.0000
  Cs  Cs2       1.0  0.6565253101289272  0.25049883127212524  0.7829338870942593  1.0000
  Cs  Cs3       1.0  0.9572981745004654  0.35510339215397835  0.07641536463052034  1.0000
  Cs  Cs4       1.0  0.015997223556041718  0.5323139075189829  0.27972352341748774  1.0000
  H   H1        1.0  0.8775735758244991  0.6674091629683971  0.9093504403717816  1.0000
  H   H2        1.0  0.9860344789922237  0.06568785756826401  0.06679114326834679  1.0000
  H   H3        1.0  0.8734478838741779  0.7111776247620583  0.262726491317153  1.0000
  H   H4        1.0  0.1611965447664261  0.4105150029063225  0.24644387513399124  1.0000
  S   S1        1.0  0.11061197519302368  0.6147947758436203  0.08078969269990921  1.0000
  S   S2        1.0  0.13275107741355896  0.06182420253753662  0.22044037492014468  1.0000
  S   S3        1.0  0.8488412238657475  0.8600892089307308  0.21759075857698917  1.0000
  S   S4        1.0  0.4136679470539093  0.048713184893131256  0.6275453390553594  1.0000
  O   O1        1.0  0.00045795319601893425  0.6870562843978405  0.9020565052051097  1.0000
  O   O2        1.0  0.45181689631863264  0.49738418124616146  0.7157287984155118  1.0000
  O   O3        1.0  0.49031841417308897  0.6972758912015706  0.1561726210056804  1.0000
  O   O4        1.0  0.058106103679165244  0.949376133037731  0.9952805148204789  1.0000
  O   O5        1.0  0.47369974153116345  0.017270379001274705  0.10528928064741194  1.0000
  O   O6        1.0  0.4470343813300133  0.007551273331046104  0.9104812622535974  1.0000
  O   O7        1.0  0.7735596536658704  0.8474913155660033  0.6648962323088199  1.0000
  O   O8        1.0  0.040767974220216274  0.6519969401415437  0.13136179535649717  1.0000
data_image42
_chemical_formula_structural       Cs4H4S4O8
_chemical_formula_sum              "Cs4 H4 S4 O8"
_cell_length_a       5.817371
_cell_length_b       6.411326074356613
_cell_length_c       12.038703921785974
_cell_angle_alpha    93.7344795294116
_cell_angle_beta     90.0
_cell_angle_gamma    116.97998093780937

_space_group_name_H-M_alt    "P 1"
_space_group_IT_number       1

loop_
  _space_group_symop_operation_xyz
  'x, y, z'

loop_
  _atom_site_type_symbol
  _atom_site_label
  _atom_site_symmetry_multiplicity
  _atom_site_fract_x
  _atom_site_fract_y
  _atom_site_fract_z
  _atom_site_occupancy
  Cs  Cs1       1.0  0.07604669220745564  0.9452384989708662  0.9481643168255687  1.0000
  Cs  Cs2       1.0  0.39332060888409615  0.9823602242395282  0.29986771661788225  1.0000
  Cs  Cs3       1.0  0.6587872616946697  0.5683563463389874  0.49544695601798594  1.0000
  Cs  Cs4       1.0  0.009556222707033157  0.15089219249784946  0.7363011456327513  1.0000
  H   H1        1.0  0.25127137824893  0.5718962261453271  0.3955386998131871  1.0000
  H   H2        1.0  0.6341221109032631  0.7975893914699554  0.7486474066972733  1.0000
  H   H3        1.0  0.5839711017906666  0.02920001745223999  0.6520717069506645  1.0000
  H   H4        1.0  0.10356888175010681  0.48911356180906296  0.9720470639877021  1.0000
  S   S1        1.0  0.4804239571094513  0.018953397870063782  0.5402667373418808  1.0000
  S   S2        1.0  0.42042145133018494  0.1275034174323082  0.2011884292587638  1.0000
  S   S3        1.0  0.5728452275507152  0.1534370705485344  0.7301529329270124  1.0000
  S   S4        1.0  0.6020644083619118  0.4398311972618103  0.9485624618828297  1.0000
  O   O1        1.0  0.4823076599277556  0.7221490032970905  0.6716663483530283  1.0000
  O   O2        1.0  0.6806867382547352  0.8245998043566942  0.24272694624960423  1.0000
  O   O3        1.0  0.8659547936404124  0.696338344598189  0.04633772885426879  1.0000
  O   O4        1.0  0.2138681526412256  0.01594959502108395  0.1095006651012227  1.0000
  O   O5        1.0  0.7772622760385275  0.47162011824548244  0.4830532409250736  1.0000
  O   O6        1.0  0.9987808242440224  0.35269657615572214  0.29506683522777166  1.0000
  O   O7        1.0  0.926402136683464  0.35614405502565205  0.18832394457422197  1.0000
  O   O8        1.0  0.24653468234464526  0.6031122002750635  0.8183967271470465  1.0000
data_image43
_chemical_formula_structural       Cs4H4S4O8
_chemical_formula_sum              "Cs4 H4 S4 O8"
_cell_length_a       5.817371
_cell_length_b       6.411326074356613
_cell_length_c       12.038703921785974
_cell_angle_alpha    93.7344795294116
_cell_angle_beta     90.0
_cell_angle_gamma    116.97998093780937

_space_group_name_H-M_alt    "P 1"
_space_group_IT_number       1

loop_
  _space_group_symop_operation_xyz
  'x, y, z'

loop_
  _atom_site_type_symbol
  _atom_site_label
  _atom_site_symmetry_multiplicity
  _atom_site_fract_x
  _atom_site_fract_y
  _atom_site_fract_z
  _atom_site_occupancy
  Cs  Cs1       1.0  0.8753254227340221  0.8170982133597136  0.7643096374813467  1.0000
  Cs  Cs2       1.0  0.5295080281794071  0.9895503958687186  0.8977260543033481  1.0000
  Cs  Cs3       1.0  0.03696105256676674  0.24118490889668465  0.49552540574222803  1.0000
  Cs  Cs4       1.0  0.29119790345430374  0.5454321391880512  0.4391849741805345  1.0000
  H   H1        1.0  0.16249043308198452  0.8399755414575338  0.641153350006789  1.0000
  H   H2        1.0  0.8102526366710663  0.2678440362215042  0.8094043731689453  1.0000
  H   H3        1.0  0.9131256453692913  0.34361017495393753  0.7572442106902599  1.0000
  H   H4        1.0  0.9402955248951912  0.25542064011096954  0.780371974222362  1.0000
  S   S1        1.0  0.7759692370891571  0.7632580101490021  0.19441229850053787  1.0000
  S   S2        1.0  0.06291888654232025  0.654081329703331  0.9250711719505489  1.0000
  S   S3        1.0  0.23851946415379643  0.45096564292907715  0.7027354966849089  1.0000
  S   S4        1.0  0.8853376060724258  0.6526418253779411  0.9410853618755937  1.0000
  O   O1        1.0  0.4200910059735179  0.5448519461788237  0.908982853172347  1.0000
  O   O2        1.0  0.10153189953416586  0.7329734265804291  0.10951221617870033  1.0000
  O   O3        1.0  0.8912980147870257  0.11334901745431125  0.9125295576814096  1.0000
  O   O4        1.0  0.4256472997367382  0.9353888053447008  0.6642566638765857  1.0000
  O   O5        1.0  0.3167311130091548  0.4585317987948656  0.720209325896576  1.0000
  O   O6        1.0  0.15116597712039948  0.5257883537560701  0.37158701510634273  1.0000
  O   O7        1.0  0.55600810283795  0.7299531658645719  0.10232261347118765  1.0000
  O   O8        1.0  0.3481069456320256  0.8303192665334791  0.1866856623091735  1.0000
data_image44
_chemical_formula_structural       Cs4H4S4O8
_chemical_formula_sum              "Cs4 H4 S4 O8"
_cell_length_a       5.817371
_cell_length_b       6.411326074356613
_cell_length_c       12.038703921785974
_cell_angle_alpha    93.7344795294116
_cell_angle_beta     90.0
_cell_angle_gamma    116.97998093780937

_space_group_name_H-M_alt    "P 1"
_space_group_IT_number       1

loop_
  _space_group_symop_operation_xyz
  'x, y, z'

loop_
  _atom_site_type_symbol
  _atom_site_label
  _atom_site_symmetry_multiplicity
  _atom_site_fract_x
  _atom_site_fract_y
  _atom_site_fract_z
  _atom_site_occupancy
  Cs  Cs1       1.0  0.48885166086256504  0.6478917440399528  0.32423052634112537  1.0000
  Cs  Cs2       1.0  0.9123090282082558  0.45193671993911266  0.04246474336832762  1.0000
  Cs  Cs3       1.0  0.5372295118868351  0.961582500487566  0.6105713462457061  1.0000
  Cs  Cs4       1.0  0.8967728838324547  0.4284632187336683  0.27898243779782206  1.0000
  H   H1        1.0  0.5754981879144907  0.10121263563632965  0.04222579626366496  1.0000
  H   H2        1.0  0.8509989082813263  0.2546929270029068  0.22874313965439796  1.0000
  H   H3        1.0  0.22587290778756142  0.45158320665359497  0.19086463190615177  1.0000
  H   H4        1.0  0.2895505726337433  0.9456289783120155  0.5546841042814776  1.0000
  S   S1        1.0  0.2590148448944092  0.9650262743234634  0.038146860897541046  1.0000
  S   S2        1.0  0.8436660617589951  0.44724002480506897  0.7169682253152132  1.0000
  S   S3        1.0  0.5297462102025747  0.6402709633111954  0.4142982345074415  1.0000
  S   S4        1.0  0.6261174529790878  0.2561414763331413  0.17567263636738062  1.0000
  O   O1        1.0  0.9444669228978455  0.3133644270710647  0.2599676891695708  1.0000
  O   O2        1.0  0.4073705645860173  0.872700734063983  0.13619676744565368  1.0000
  O   O3        1.0  0.6578498531598598  0.7028461436275393  0.004215542023302987  1.0000
  O   O4        1.0  0.5003381451242603  0.062244733795523643  0.2990153864957392  1.0000
  O   O5        1.0  0.8437373857013881  0.8842164832167327  0.06460970221087337  1.0000
  O   O6        1.0  0.8986666537821293  0.31797543074935675  0.5925111125689  1.0000
  O   O7        1.0  0.5327238468453288  0.7254775299225003  0.1064675401430577  1.0000
  O   O8        1.0  0.31088053807616234  0.20807034359313548  0.10476934025064111  1.0000
data_image45
_chemical_formula_structural       Cs4H4S4O8
_chemical_formula_sum              "Cs4 H4 S4 O8"
_cell_length_a       5.817371
_cell_length_b       6.411326074356613
_cell_length_c       12.038703921785974
_cell_angle_alpha    93.7344795294116
_cell_angle_beta     90.0
_cell_angle_gamma    116.97998093780937

_space_group_name_H-M_alt    "P 1"
_space_group_IT_number       1

loop_
  _space_group_symop_operation_xyz
  'x, y, z'

loop_
  _atom_site_type_symbol
  _atom_site_label
  _atom_site_symmetry_multiplicity
  _atom_site_fract_x
  _atom_site_fract_y
  _atom_site_fract_z
  _atom_site_occupancy
  Cs  Cs1       1.0  0.39104138873517513  0.8942233370617032  0.8282093058805913  1.0000
  Cs  Cs2       1.0  0.6194754280149937  0.47521516028791666  0.10419909749180079  1.0000
  Cs  Cs3       1.0  0.5866757221519947  0.3106742314994335  0.9136968639213592  1.0000
  Cs  Cs4       1.0  0.7329102233052254  0.8463234063237906  0.02025552373379469  1.0000
  H   H1        1.0  0.33106305077672005  0.09395962953567505  0.5023981342092156  1.0000
  H   H2        1.0  0.9223574921488762  0.048540204763412476  0.7932327352464199  1.0000
  H   H3        1.0  0.693645067512989  0.8994752764701843  0.1144507173448801  1.0000
  H   H4        1.0  0.6907517462968826  0.3995774835348129  0.11057854317914462  1.0000
  S   S1        1.0  0.8069787621498108  0.14888715744018555  0.3966275751590729  1.0000
  S   S2        1.0  0.3045455813407898  0.33308665454387665  0.516862309537828  1.0000
  S   S3        1.0  0.3293808330781758  0.3075205124914646  0.2047532070428133  1.0000
  S   S4        1.0  0.7661311402916908  0.42114631831645966  0.7899564551189542  1.0000
  O   O1        1.0  0.8877174677327275  0.7162588373757899  0.1782975485548377  1.0000
  O   O2        1.0  0.5255815504933707  0.8237240929156542  0.923795981798321  1.0000
  O   O3        1.0  0.39329874608665705  0.7930643474683166  0.11937160382512957  1.0000
  O   O4        1.0  0.27203015485429205  0.5722933483775705  0.8545871002133936  1.0000
  O   O5        1.0  0.28616398433223367  0.4161892441334203  0.2704664128832519  1.0000
  O   O6        1.0  0.8577725626528263  0.46434074360877275  0.14191216579638422  1.0000
  O   O7        1.0  0.36434104992076755  0.41887180088087916  0.30314739770255983  1.0000
  O   O8        1.0  0.13458706461824477  0.007498906226828694  0.244507240713574  1.0000
data_image46
_chemical_formula_structural       Cs4H4S4O8
_chemical_formula_sum              "Cs4 H4 S4 O8"
_cell_length_a       5.817371
_cell_length_b       6.411326074356613
_cell_length_c       12.038703921785974
_cell_angle_alpha    93.7344795294116
_cell_angle_beta     90.0
_cell_angle_gamma    116.97998093780937

_space_group_name_H-M_alt    "P 1"
_space_group_IT_number       1

loop_
  _space_group_symop_operation_xyz
  'x, y, z'

loop_
  _atom_site_type_symbol
  _atom_site_label
  _atom_site_symmetry_multiplicity
  _atom_site_fract_x
  _atom_site_fract_y
  _atom_site_fract_z
  _atom_site_occupancy
  Cs  Cs1       1.0  0.6075450927019119  0.02405895572155714  0.8145349062979221  1.0000
  Cs  Cs2       1.0  0.7128183171153069  0.7813785253092647  0.21751889865845442  1.0000
  Cs  Cs3       1.0  0.4359634816646576  0.3792107291519642  0.5072659740690142  1.0000
  Cs  Cs4       1.0  0.40050311759114265  0.4185627158731222  0.9584495092276484  1.0000
  H   H1        1.0  0.3396233059465885  0.5832846574485302  0.22539552673697472  1.0000
  H   H2        1.0  0.13485732674598694  0.7626448571681976  0.24505793675780296  1.0000
  H   H3        1.0  0.8548553138971329  0.7508521676063538  0.5496997777372599  1.0000
  H   H4        1.0  0.31402143836021423  0.8323731571435928  0.4439603901228111  1.0000
  S   S1        1.0  0.1844257414340973  0.9196604788303375  0.5860393345355988  1.0000
  S   S2        1.0  0.5320079475641251  0.058085523545742035  0.8856726079247892  1.0000
  S   S3        1.0  0.6250699404627085  0.3026582971215248  0.6475127935409546  1.0000
  S   S4        1.0  0.15996302664279938  0.7278568223118782  0.6948432587087154  1.0000
  O   O1        1.0  0.5695525053888559  0.48349333461374044  0.5647596656344831  1.0000
  O   O2        1.0  0.7029487458057702  0.5033697690814734  0.4675219503697008  1.0000
  O   O3        1.0  0.35756667144596577  0.1572618188802153  0.22532143210992217  1.0000
  O   O4        1.0  0.6404644503490999  0.49479285650886595  0.934516892186366  1.0000
  O   O5        1.0  0.7783973850309849  0.07336643431335688  0.5810083143878728  1.0000
  O   O6        1.0  0.2595268748700619  0.5785871148109436  0.1562493264209479  1.0000
  O   O7        1.0  0.4313670373521745  0.06529870769008994  0.7077384092845023  1.0000
  O   O8        1.0  0.7316962846089154  0.0585307851433754  0.1364205899881199  1.0000
data_image47
_chemical_formula_structural       Cs4H4S4O8
_chemical_formula_sum              "Cs4 H4 S4 O8"
_cell_length_a       5.817371
_cell_length_b       6.411326074356613
_cell_length_c       12.038703921785974
_cell_angle_alpha    93.7344795294116
_cell_angle_beta     90.0
_cell_angle_gamma    116.97998093780937

_space_group_name_H-M_alt    "P 1"
_space_group_IT_number       1

loop_
  _space_group_symop_operation_xyz
  'x, y, z'

loop_
  _atom_site_type_symbol
  _atom_site_label
  _atom_site_symmetry_multiplicity
  _atom_site_fract_x
  _atom_site_fract_y
  _atom_site_fract_z
  _atom_site_occupancy
  Cs  Cs1       1.0  0.8322706017643213  0.32947246450930834  0.21541675832122564  1.0000
  Cs  Cs2       1.0  0.758790023624897  0.7427429794333875  0.3052030932158232  1.0000
  Cs  Cs3       1.0  0.7053349912166595  0.9666776806116104  0.5376535530667752  1.0000
  Cs  Cs4       1.0  0.2062557265162468  0.10927100479602814  0.7291809044545516  1.0000
  H   H1        1.0  0.7246659994125366  0.6384451799094677  0.008138852193951607  1.0000
  H   H2        1.0  0.7309764623641968  0.8574559241533279  0.5332420989871025  1.0000
  H   H3        1.0  0.9375330246984959  0.8259347081184387  0.10438654199242592  1.0000
  H   H4        1.0  0.4391045421361923  0.3809044435620308  0.20319225147613906  1.0000
  S   S1        1.0  0.13307082653045654  0.5058699995279312  0.01914267987012863  1.0000
  S   S2        1.0  0.5559109151363373  0.5613566786050797  0.4413240170106292  1.0000
  S   S3        1.0  0.2531740986742079  0.06861435994505882  0.747810073196888  1.0000
  S   S4        1.0  0.6271637827157974  0.5171888172626495  0.394749840721488  1.0000
  O   O1        1.0  0.058256018441170454  0.17888829857110977  0.5510586758609861  1.0000
  O   O2        1.0  0.6154024863499217  0.9518284890800714  0.5241936326492578  1.0000
  O   O3        1.0  0.6137057607993484  0.2505831131711602  0.7554514375515282  1.0000
  O   O4        1.0  0.9575590783788357  0.9050007665064186  0.6992071102140471  1.0000
  O   O5        1.0  0.35181342205032706  0.8845498447772115  0.6510007730685174  1.0000
  O   O6        1.0  0.8045675605535507  0.07360377255827188  0.005564635852351785  1.0000
  O   O7        1.0  0.6362280966714025  0.2983649978414178  0.524599181022495  1.0000
  O   O8        1.0  0.34692931617610157  0.4694947199895978  0.9441857039928436  1.0000
data_image48
_chemical_formula_structural       Cs4H4S4O8
_chemical_formula_sum              "Cs4 H4 S4 O8"
_cell_length_a       5.817371
_cell_length_b       6.411326074356613
_cell_length_c       12.038703921785974
_cell_angle_alpha    93.7344795294116
_cell_angle_beta     90.0
_cell_angle_gamma    116.97998093780937

_space_group_name_H-M_alt    "P 1"
_space_group_IT_number       1

loop_
  _space_group_symop_operation_xyz
  'x, y, z'

loop_
  _atom_site_type_symbol
  _atom_site_label
  _atom_site_symmetry_multiplicity
  _atom_site_fract_x
  _atom_site_fract_y
  _atom_site_fract_z
  _atom_site_occupancy
  Cs  Cs1       1.0  0.12402985244989395  0.2083830051124096  0.7886849024798721  1.0000
  Cs  Cs2       1.0  0.10976431518793106  0.544247327838093  0.3958304841071367  1.0000
  Cs  Cs3       1.0  0.6177050210535526  0.508016224950552  0.0017363938968628645  1.0000
  Cs  Cs4       1.0  0.9832952618598938  0.4648042693734169  0.2410898704547435  1.0000
  H   H1        1.0  0.017268875613808632  0.9132292773574591  0.4086008267477155  1.0000
  H   H2        1.0  0.8087280280888081  0.5382705554366112  0.4248558208346367  1.0000
  H   H3        1.0  0.9027668721973896  0.6326566860079765  0.874219112098217  1.0000
  H   H4        1.0  0.45413078367710114  0.24415278434753418  0.9194120993925026  1.0000
  S   S1        1.0  0.3827366232872009  0.3621451258659363  0.0981413945555687  1.0000
  S   S2        1.0  0.7942139357328415  0.27244211733341217  0.930100183468312  1.0000
  S   S3        1.0  0.5350132598541677  0.7229245752096176  0.08740639314055443  1.0000
  S   S4        1.0  0.5598296895623207  0.09080088883638382  0.09303274843841791  1.0000
  O   O1        1.0  0.4502298282459378  0.8720487160608172  0.8859570731874555  1.0000
  O   O2        1.0  0.23696680180728436  0.5522644780576229  0.5245416986290365  1.0000
  O   O3        1.0  0.285689081531018  0.15773767442442477  0.8921340934466571  1.0000
  O   O4        1.0  0.9971734032151289  0.8334585493430495  0.7949969314504415  1.0000
  O   O5        1.0  0.3889489946886897  0.8343577845953405  0.4205497191287577  1.0000
  O   O6        1.0  0.2619800418615341  0.34106888994574547  0.2448713406920433  1.0000
  O   O7        1.0  0.5052901597227901  0.818718820810318  0.17748444364406168  1.0000
  O   O8        1.0  0.5374132094439119  0.889333977829665  0.415471036802046  1.0000
data_image49
_chemical_formula_structural       Cs4H4S4O8
_chemical_formula_sum              "Cs4 H4 S4 O8"
_cell_length_a       5.817371
_cell_length_b       6.411326074356613
_cell_length_c       12.038703921785974
_cell_angle_alpha    93.7344795294116
_cell_angle_beta     90.0
_cell_angle_gamma    116.97998093780937

_space_group_name_H-M_alt    "P 1"
_space_group_IT_number       1

loop_
  _space_group_symop_operation_xyz
  'x, y, z'

loop_
  _atom_site_type_symbol
  _atom_site_label
  _atom_site_symmetry_multiplicity
  _atom_site_fract_x
  _atom_site_fract_y
  _atom_site_fract_z
  _atom_site_occupancy
  Cs  Cs1       1.0  0.6872724257409573  0.33680836483836174  0.1486125262454152  1.0000
  Cs  Cs2       1.0  0.8857385627925396  0.35931827314198017  0.5326790222898126  1.0000
  Cs  Cs3       1.0  0.7842159867286682  0.5761827938258648  0.9730209044646472  1.0000
  Cs  Cs4       1.0  0.9164230525493622  0.9737781770527363  0.4220166209852323  1.0000
  H   H1        1.0  0.23498961701989174  0.03672106750309467  0.1931894849985838  1.0000
  H   H2        1.0  0.8998166546225548  0.1329980455338955  0.030820567160844803  1.0000
  H   H3        1.0  0.2790152505040169  0.1899227350950241  0.742561262100935  1.0000
  H   H4        1.0  0.6317259073257446  0.24809155613183975  0.6633365804882487  1.0000
  S   S1        1.0  0.6358326077461243  0.23454222083091736  0.5307290256023407  1.0000
  S   S2        1.0  0.11078137159347534  0.6314270421862602  0.4758712244220078  1.0000
  S   S3        1.0  0.5709864948876202  0.8987219035625458  0.03937919624149799  1.0000
  S   S4        1.0  0.6391019448637962  0.6296177953481674  0.8250952176749706  1.0000
  O   O1        1.0  0.01864097500219941  0.7026271340437233  0.5352529634255916  1.0000
  O   O2        1.0  0.8797539957449771  0.02232733555138111  0.9704740094020963  1.0000
  O   O3        1.0  0.4043006566353142  0.22896043141372502  0.785499939636793  1.0000
  O   O4        1.0  0.5805555694096256  0.41075162775814533  0.6567595368251204  1.0000
  O   O5        1.0  0.754828735254705  0.9903933109017089  0.6068599037826061  1.0000
  O   O6        1.0  0.8288510590791702  0.124549456872046  0.1356748470570892  1.0000
  O   O7        1.0  0.33471760689280927  0.639545205514878  0.44611107208766043  1.0000
  O   O8        1.0  0.4543211031705141  0.7791133953724056  0.8664658686611801  1.0000
data_image50
_chemical_formula_structural       Cs4H4S4O8
_chemical_formula_sum              "Cs4 H4 S4 O8"
_cell_length_a       5.817371
_cell_length_b       6.411326074356613
_cell_length_c       12.038703921785974
_cell_angle_alpha    93.7344795294116
_cell_angle_beta     90.0
_cell_angle_gamma    116.97998093780937

_space_group_name_H-M_alt    "P 1"
_space_group_IT_number       1

loop_
  _space_group_symop_operation_xyz
  'x, y, z'

loop_
  _atom_site_type_symbol
  _atom_site_label
  _atom_site_symmetry_multiplicity
  _atom_site_fract_x
  _atom_site_fract_y
  _atom_site_fract_z
  _atom_site_occupancy
  Cs  Cs1       1.0  0.06175766885280609  0.34196191281080246  0.15595964551903307  1.0000
  Cs  Cs2       1.0  0.2737780287861824  0.45282641239464283  0.9443202307447791  1.0000
  Cs  Cs3       1.0  0.3098651245236397  0.4295620284974575  0.8410802255384624  1.0000
  Cs  Cs4       1.0  0.2585964687168598  0.12561332434415817  0.60713137651328  1.0000
  H   H1        1.0  0.010439291596412659  0.18044150806963444  0.4847832852974534  1.0000
  H   H2        1.0  0.45404574275016785  0.016384750604629517  0.04212168604135513  1.0000
  H   H3        1.0  0.770783293992281  0.39421434700489044  0.5472222696989775  1.0000
  H   H4        1.0  0.9931857287883759  0.9931690096855164  0.6345037859427975  1.0000
  S   S1        1.0  0.5779046714305878  0.957106426358223  0.6227817386388779  1.0000
  S   S2        1.0  0.5386515259742737  0.28792428970336914  0.4099867404438555  1.0000
  S   S3        1.0  0.05373592581599951  0.5405183210968971  0.000662023201584816  1.0000
  S   S4        1.0  0.015918202698230743  0.31631460040807724  0.38703484181314707  1.0000
  O   O1        1.0  0.44432432716712356  0.7740441192872822  0.3415282149799168  1.0000
  O   O2        1.0  0.35961000993847847  0.12993015721440315  0.001993385376408696  1.0000
  O   O3        1.0  0.6380735212005675  0.49908997281454504  0.5554815074428916  1.0000
  O   O4        1.0  0.3765780522953719  0.8749999881256372  0.8837734198896214  1.0000
  O   O5        1.0  0.9155749152414501  0.6066645144019276  0.9680598895065486  1.0000
  O   O6        1.0  0.4875708818435669  0.48883495293557644  0.7789100597146899  1.0000
  O   O7        1.0  0.9235718885902315  0.4806592548266053  0.49236141284927726  1.0000
  O   O8        1.0  0.215520310215652  0.390405259327963  0.4892172724939883  1.0000
data_image51
_chemical_formula_structural       Cs4H4S4O8
_chemical_formula_sum              "Cs4 H4 S4 O8"
_cell_length_a       5.817371
_cell_length_b       6.411326074356613
_cell_length_c       12.038703921785974
_cell_angle_alpha    93.7344795294116
_cell_angle_beta     90.0
_cell_angle_gamma    116.97998093780937

_space_group_name_H-M_alt    "P 1"
_space_group_IT_number       1

loop_
  _space_group_symop_operation_xyz
  'x, y, z'

loop_
  _atom_site_type_symbol
  _atom_site_label
  _atom_site_symmetry_multiplicity
  _atom_site_fract_x
  _atom_site_fract_y
  _atom_site_fract_z
  _atom_site_occupancy
  Cs  Cs1       1.0  0.7407304011285305  0.23190945107489824  0.37093525589443743  1.0000
  Cs  Cs2       1.0  0.029791947454214096  0.6244186852127314  0.9958629524335265  1.0000
  Cs  Cs3       1.0  0.4294672980904579  0.4462950900197029  0.7261093650013208  1.0000
  Cs  Cs4       1.0  0.28309670463204384  0.4668523892760277  0.5370470241177827  1.0000
  H   H1        1.0  0.8338123895227909  0.9646042734384537  0.16432998981326818  1.0000
  H   H2        1.0  0.43856319040060043  0.6891235318034887  0.49003950133919716  1.0000
  H   H3        1.0  0.17006083577871323  0.5678613185882568  0.16478363052010536  1.0000
  H   H4        1.0  0.5828921347856522  0.05684244632720947  0.9684308492433047  1.0000
  S   S1        1.0  0.8127745389938354  0.9983441382646561  0.9999552890658379  1.0000
  S   S2        1.0  0.13923154771327972  0.64582559466362  0.09094667574390769  1.0000
  S   S3        1.0  0.10399194667115808  0.3765547275543213  0.7679391466081142  1.0000
  S   S4        1.0  0.2862786501646042  0.9240725636482239  0.8636685088276863  1.0000
  O   O1        1.0  0.8628793898969889  0.8050913806073368  0.4759639536496252  1.0000
  O   O2        1.0  0.9238832937553525  0.07439099997282028  0.4448959636501968  1.0000
  O   O3        1.0  0.08095488976687193  0.7335661556571722  0.6337963919504546  1.0000
  O   O4        1.0  0.8000167800878444  0.3194760518381372  0.020105531555600464  1.0000
  O   O5        1.0  0.6597133176401258  0.46752062859013677  0.8004133205395192  1.0000
  O   O6        1.0  0.07413501664996147  0.4238680303096771  0.6706185624934733  1.0000
  O   O7        1.0  0.061198466224595904  0.6397044495679438  0.9822054484393448  1.0000
  O   O8        1.0  0.6882952798623592  0.4778642824385315  0.6820195140317082  1.0000
data_image52
_chemical_formula_structural       Cs4H4S4O8
_chemical_formula_sum              "Cs4 H4 S4 O8"
_cell_length_a       5.817371
_cell_length_b       6.411326074356613
_cell_length_c       12.038703921785974
_cell_angle_alpha    93.7344795294116
_cell_angle_beta     90.0
_cell_angle_gamma    116.97998093780937

_space_group_name_H-M_alt    "P 1"
_space_group_IT_number       1

loop_
  _space_group_symop_operation_xyz
  'x, y, z'

loop_
  _atom_site_type_symbol
  _atom_site_label
  _atom_site_symmetry_multiplicity
  _atom_site_fract_x
  _atom_site_fract_y
  _atom_site_fract_z
  _atom_site_occupancy
  Cs  Cs1       1.0  0.8114328682422638  0.5909662777557969  0.4846020112745464  1.0000
  Cs  Cs2       1.0  0.2644416615366936  0.8314423798583448  0.7497788295149803  1.0000
  Cs  Cs3       1.0  0.7048481069505215  0.5681313164532185  0.8238678388297558  1.0000
  Cs  Cs4       1.0  0.15767475217580795  0.33491222001612186  0.6602303048130125  1.0000
  H   H1        1.0  0.2902340469881892  0.18631858751177788  0.440418291836977  1.0000
  H   H2        1.0  0.7752164490520954  0.1864246092736721  0.6238658875226974  1.0000
  H   H3        1.0  0.1561221182346344  0.1489359587430954  0.7291084080934525  1.0000
  H   H4        1.0  0.5768100768327713  0.7720939517021179  0.7796567299374146  1.0000
  S   S1        1.0  0.23404043912887573  0.954570934176445  0.8761984705924988  1.0000
  S   S2        1.0  0.5151325464248657  0.4321030154824257  0.6099507776089013  1.0000
  S   S3        1.0  0.2661072644405067  0.28803907707333565  0.8611372988671064  1.0000
  S   S4        1.0  0.2983229011297226  0.5978943705558777  0.12605082616209984  1.0000
  O   O1        1.0  0.19799095625057817  0.913893561810255  0.5173768460517749  1.0000
  O   O2        1.0  0.6342133153229952  0.8473533559590578  0.3858537601772696  1.0000
  O   O3        1.0  0.7066274671815336  0.8248348305933177  0.1851387568458449  1.0000
  O   O4        1.0  0.5790909510105848  0.4320735789369792  0.9387202566722408  1.0000
  O   O5        1.0  0.4044766924344003  0.7130690029589459  0.1778647401370108  1.0000
  O   O6        1.0  0.18044303357601166  0.48273944668471813  0.020907422062009573  1.0000
  O   O7        1.0  0.11748784082010388  0.011555421631783247  0.1773321758955717  1.0000
  O   O8        1.0  0.19903678307309747  0.4783737694378942  0.6433310315478593  1.0000
data_image53
_chemical_formula_structural       Cs4H4S4O8
_chemical_formula_sum              "Cs4 H4 S4 O8"
_cell_length_a       5.817371
_cell_length_b       6.411326074356613
_cell_length_c       12.038703921785974
_cell_angle_alpha    93.7344795294116
_cell_angle_beta     90.0
_cell_angle_gamma    116.97998093780937

_space_group_name_H-M_alt    "P 1"
_space_group_IT_number       1

loop_
  _space_group_symop_operation_xyz
  'x, y, z'

loop_
  _atom_site_type_symbol
  _atom_site_label
  _atom_site_symmetry_multiplicity
  _atom_site_fract_x
  _atom_site_fract_y
  _atom_site_fract_z
  _atom_site_occupancy
  Cs  Cs1       1.0  0.828167887404561  0.7873701779171824  0.00984516111202538  1.0000
  Cs  Cs2       1.0  0.9217401444911957  0.21689243707805872  0.43076595943421125  1.0000
  Cs  Cs3       1.0  0.05998210981488228  0.01727520301938057  0.6030480419285595  1.0000
  Cs  Cs4       1.0  0.631212193518877  0.7902557887136936  0.813457005075179  1.0000
  H   H1        1.0  0.4448703611269593  0.6433448810130358  0.7410399243235588  1.0000
  H   H2        1.0  0.8000768274068832  0.3708235565572977  0.7518403306603432  1.0000
  H   H3        1.0  0.6132657788693905  0.23475223034620285  0.19243093021214008  1.0000
  H   H4        1.0  0.9491565674543381  0.9625656455755234  0.06917004741262645  1.0000
  S   S1        1.0  0.3881625831127167  0.36216434836387634  0.4422248527407646  1.0000
  S   S2        1.0  0.8399716168642044  0.628081776201725  0.3885697042569518  1.0000
  S   S3        1.0  0.9223099099472165  0.6183347329497337  0.5395742896944284  1.0000
  S   S4        1.0  0.5655967593193054  0.27741237729787827  0.9191070329397917  1.0000
  O   O1        1.0  0.45384148228913546  0.5450772708281875  0.40344380016904324  1.0000
  O   O2        1.0  0.5272429343312979  0.9306220663711429  0.6149793433723971  1.0000
  O   O3        1.0  0.25564969470724463  0.7887151190079749  0.5989132918621181  1.0000
  O   O4        1.0  0.34035821713041514  0.4577762917615473  0.14341287850402296  1.0000
  O   O5        1.0  0.9729935259092599  0.8492258312180638  0.38054146245121956  1.0000
  O   O6        1.0  0.14111295714974403  0.7849012780934572  0.8788098259828985  1.0000
  O   O7        1.0  0.39306312054395676  0.7863042638637125  0.19521290133707225  1.0000
  O   O8        1.0  0.11178479297086596  0.3172771008685231  0.7958357509924099  1.0000
data_image54
_chemical_formula_structural       Cs4H4S4O8
_chemical_formula_sum              "Cs4 H4 S4 O8"
_cell_length_a       5.817371
_cell_length_b       6.411326074356613
_cell_length_c       12.038703921785974
_cell_angle_alpha    93.7344795294116
_cell_angle_beta     90.0
_cell_angle_gamma    116.97998093780937

_space_group_name_H-M_alt    "P 1"
_space_group_IT_number       1

loop_
  _space_group_symop_operation_xyz
  'x, y, z'

loop_
  _atom_site_type_symbol
  _atom_site_label
  _atom_site_symmetry_multiplicity
  _atom_site_fract_x
  _atom_site_fract_y
  _atom_site_fract_z
  _atom_site_occupancy
  Cs  Cs1       1.0  0.41301216557621956  0.8164602909237146  0.4411844126880169  1.0000
  Cs  Cs2       1.0  0.08539821952581406  0.01636473322287202  0.07394316978752613  1.0000
  Cs  Cs3       1.0  0.34131134301424026  0.5557193905115128  0.754177201539278  1.0000
  Cs  Cs4       1.0  0.11108337342739105  0.4559191558510065  0.44909489329438657  1.0000
  H   H1        1.0  0.534377871081233  0.3267264235764742  0.37744951993227005  1.0000
  H   H2        1.0  0.037097495049238205  0.1260119043290615  0.030511826276779175  1.0000
  H   H3        1.0  0.32516802102327347  0.9770448803901672  0.12585287727415562  1.0000
  H   H4        1.0  0.624769389629364  0.16269765049219131  0.8714204410789534  1.0000
  S   S1        1.0  0.5022332966327667  0.17573808133602142  0.5268685147166252  1.0000
  S   S2        1.0  0.7774852961301804  0.46086062490940094  0.5097979954443872  1.0000
  S   S3        1.0  0.9037768896669149  0.8990539908409119  0.8475561961531639  1.0000
  S   S4        1.0  0.839531734585762  0.48334474489092827  0.7135063633322716  1.0000
  O   O1        1.0  0.39510174887254834  0.13978493306785822  0.6590843490557745  1.0000
  O   O2        1.0  0.9005583934485912  0.7286220546811819  0.514838311704807  1.0000
  O   O3        1.0  0.032806573901325464  0.45762863801792264  0.25760481025645277  1.0000
  O   O4        1.0  0.11415200924966484  0.8424829322611913  0.014918948523700237  1.0000
  O   O5        1.0  0.6423600141424686  0.3170062340213917  0.49018827569670975  1.0000
  O   O6        1.0  0.20804699137806892  0.39740003645420074  0.09711800143122673  1.0000
  O   O7        1.0  0.34573959023691714  0.5736713353544474  0.5663555497303605  1.0000
  O   O8        1.0  0.24593256576918066  0.5850511121097952  0.7579102123854682  1.0000
data_image55
_chemical_formula_structural       Cs4H4S4O8
_chemical_formula_sum              "Cs4 H4 S4 O8"
_cell_length_a       5.817371
_cell_length_b       6.411326074356613
_cell_length_c       12.038703921785974
_cell_angle_alpha    93.7344795294116
_cell_angle_beta     90.0
_cell_angle_gamma    116.97998093780937

_space_group_name_H-M_alt    "P 1"
_space_group_IT_number       1

loop_
  _space_group_symop_operation_xyz
  'x, y, z'

loop_
  _atom_site_type_symbol
  _atom_site_label
  _atom_site_symmetry_multiplicity
  _atom_site_fract_x
  _atom_site_fract_y
  _atom_site_fract_z
  _atom_site_occupancy
  Cs  Cs1       1.0  0.9300956558436155  0.13272194750607014  0.5686267409473658  1.0000
  Cs  Cs2       1.0  0.7510170303285122  0.7165777045302093  0.7544565554708242  1.0000
  Cs  Cs3       1.0  0.05395970866084099  0.9451936706900597  0.520087827462703  1.0000
  Cs  Cs4       1.0  0.8279668837785721  0.6730276327580214  0.49688391282688826  1.0000
  H   H1        1.0  0.05076212412677705  0.01430702954530716  0.49716559052467346  1.0000
  H   H2        1.0  0.6081469655036926  0.33536726236343384  0.3784849941730499  1.0000
  H   H3        1.0  0.7926190309226513  0.018733307719230652  0.0651503037661314  1.0000
  H   H4        1.0  0.36742646992206573  0.5285356044769287  0.9339481361676008  1.0000
  S   S1        1.0  0.7333722710609436  0.6681599915027618  0.4379347041249275  1.0000
  S   S2        1.0  0.24867184460163116  0.8189683705568314  0.31757626635953784  1.0000
  S   S3        1.0  0.06422828836366534  0.8449350595474243  0.12215065583586693  1.0000
  S   S4        1.0  0.6592933312058449  0.08729835227131844  0.3912077099084854  1.0000
  O   O1        1.0  0.23013956937938929  0.9991149306297302  0.5944620087975636  1.0000
  O   O2        1.0  0.3152296729385853  0.8548291111364961  0.6961292262421921  1.0000
  O   O3        1.0  0.3368568979203701  0.254638206679374  0.5601612604732509  1.0000
  O   O4        1.0  0.10468317673075944  0.28229141770862043  0.47746535344049335  1.0000
  O   O5        1.0  0.6512868264690042  0.9664467213442549  0.8273073565214872  1.0000
  O   O6        1.0  0.49143702909350395  0.8724829256534576  0.2565677152015269  1.0000
  O   O7        1.0  0.4014191443566233  0.039625395089387894  0.3429480080958456  1.0000
  O   O8        1.0  0.8364935170393437  0.08042517560534179  0.48345586913637817  1.0000
data_image56
_chemical_formula_structural       Cs4H4S4O8
_chemical_formula_sum              "Cs4 H4 S4 O8"
_cell_length_a       5.817371
_cell_length_b       6.411326074356613
_cell_length_c       12.038703921785974
_cell_angle_alpha    93.7344795294116
_cell_angle_beta     90.0
_cell_angle_gamma    116.97998093780937

_space_group_name_H-M_alt    "P 1"
_space_group_IT_number       1

loop_
  _space_group_symop_operation_xyz
  'x, y, z'

loop_
  _atom_site_type_symbol
  _atom_site_label
  _atom_site_symmetry_multiplicity
  _atom_site_fract_x
  _atom_site_fract_y
  _atom_site_fract_z
  _atom_site_occupancy
  Cs  Cs1       1.0  0.8644124437123537  0.010860416106879711  0.4219525344669819  1.0000
  Cs  Cs2       1.0  0.20463795959949493  0.027662777341902256  0.934966548345983  1.0000
  Cs  Cs3       1.0  0.47321248427033424  0.012648429721593857  0.7664114572107792  1.0000
  Cs  Cs4       1.0  0.7724859826266766  0.41196280904114246  0.025814400636591017  1.0000
  H   H1        1.0  0.45561691280454397  0.5611394830048084  0.9662877209484577  1.0000
  H   H2        1.0  0.46115632355213165  0.12198280356824398  0.5848292522132397  1.0000
  H   H3        1.0  0.1472347266972065  0.16699876636266708  0.6867176238447428  1.0000
  H   H4        1.0  0.8935654312372208  0.6486024335026741  0.025323174078948796  1.0000
  S   S1        1.0  0.5245299339294434  0.8802942484617233  0.7204677388072014  1.0000
  S   S2        1.0  0.6624800264835358  0.43050914257764816  0.6204361403360963  1.0000
  S   S3        1.0  0.13965380378067493  0.41031014174222946  0.08960044384002686  1.0000
  S   S4        1.0  0.6867238506674767  0.002515360713005066  0.7431306168437004  1.0000
  O   O1        1.0  0.9074358968064189  0.6654355656355619  0.7663477812893689  1.0000
  O   O2        1.0  0.2243807502090931  0.6967006884515285  0.12461087270639837  1.0000
  O   O3        1.0  0.28052804386243224  0.37823970010504127  0.16702747564704623  1.0000
  O   O4        1.0  0.42019962542690337  0.7470947849797085  0.2661207558121532  1.0000
  O   O5        1.0  0.5279018043074757  0.3370625384268351  0.9772853483445942  1.0000
  O   O6        1.0  0.6139372028410435  0.26882483065128326  0.2910600006580353  1.0000
  O   O7        1.0  0.10823193425312638  0.2555527240037918  0.003955590073019266  1.0000
  O   O8        1.0  0.32161088241264224  0.12189208623021841  0.8420038843760267  1.0000
data_image57
_chemical_formula_structural       Cs4H4S4O8
_chemical_formula_sum              "Cs4 H4 S4 O8"
_cell_length_a       5.817371
_cell_length_b       6.411326074356613
_cell_length_c       12.038703921785974
_cell_angle_alpha    93.7344795294116
_cell_angle_beta     90.0
_cell_angle_gamma    116.97998093780937

_space_group_name_H-M_alt    "P 1"
_space_group_IT_number       1

loop_
  _space_group_symop_operation_xyz
  'x, y, z'

loop_
  _atom_site_type_symbol
  _atom_site_label
  _atom_site_symmetry_multiplicity
  _atom_site_fract_x
  _atom_site_fract_y
  _atom_site_fract_z
  _atom_site_occupancy
  Cs  Cs1       1.0  0.9330204650759697  0.8973237434402108  0.3500638082623482  1.0000
  Cs  Cs2       1.0  0.7704445589333773  0.5042841080576181  0.7122331438586116  1.0000
  Cs  Cs3       1.0  0.9200279340147972  0.21176249161362648  0.20560068497434258  1.0000
  Cs  Cs4       1.0  0.0908048078417778  0.8888556640595198  0.9444549325853586  1.0000
  H   H1        1.0  0.9747993086930364  0.5763423666357994  0.06785859167575836  1.0000
  H   H2        1.0  0.5691616162657738  0.22995546832680702  0.90192511677742  1.0000
  H   H3        1.0  0.5325392372906208  0.7479576021432877  0.9133749399334192  1.0000
  H   H4        1.0  0.441803440451622  0.7815622389316559  0.8620525063015521  1.0000
  S   S1        1.0  0.6793705224990845  0.44528503715991974  0.24864140525460243  1.0000
  S   S2        1.0  0.36142386496067047  0.7300027087330818  0.15255229594185948  1.0000
  S   S3        1.0  0.935947033809498  0.5404780507087708  0.12305793073028326  1.0000
  S   S4        1.0  0.1420842483639717  0.9581448026001453  0.34538882970809937  1.0000
  O   O1        1.0  0.13248932035639882  0.17567317839711905  0.11559476354159415  1.0000
  O   O2        1.0  0.9678135178983212  0.20494333934038877  0.7363277619006112  1.0000
  O   O3        1.0  0.10201669670641422  0.09284898452460766  0.9755934043532761  1.0000
  O   O4        1.0  0.38647819857578725  0.16434769320767373  0.5318729064892977  1.0000
  O   O5        1.0  0.6296960294712335  0.47199422999983653  0.4576548533514142  1.0000
  O   O6        1.0  0.6264754608273506  0.6143212616443634  0.8606605958193541  1.0000
  O   O7        1.0  0.6647064893040806  0.1855370383709669  0.8309151066932827  1.0000
  O   O8        1.0  0.5787223654333502  0.45926602417603135  0.6951570202363655  1.0000
data_image58
_chemical_formula_structural       Cs4H4S4O8
_chemical_formula_sum              "Cs4 H4 S4 O8"
_cell_length_a       5.817371
_cell_length_b       6.411326074356613
_cell_length_c       12.038703921785974
_cell_angle_alpha    93.7344795294116
_cell_angle_beta     90.0
_cell_angle_gamma    116.97998093780937

_space_group_name_H-M_alt    "P 1"
_space_group_IT_number       1

loop_
  _space_group_symop_operation_xyz
  'x, y, z'

loop_
  _atom_site_type_symbol
  _atom_site_label
  _atom_site_symmetry_multiplicity
  _atom_site_fract_x
  _atom_site_fract_y
  _atom_site_fract_z
  _atom_site_occupancy
  Cs  Cs1       1.0  0.5206875009462237  0.8055787887424231  0.3705271705985069  1.0000
  Cs  Cs2       1.0  0.8365899492055178  0.8725751247256994  0.8753763334825635  1.0000
  Cs  Cs3       1.0  0.17126040905714035  0.9012810662388802  0.04652077658101916  1.0000
  Cs  Cs4       1.0  0.5629355311393738  0.24430449679493904  0.7243815630208701  1.0000
  H   H1        1.0  0.07872060616500676  0.5498022884130478  0.5081274546682835  1.0000
  H   H2        1.0  0.4634016938507557  0.9004324860870838  0.6094072237610817  1.0000
  H   H3        1.0  0.9794777445495129  0.310389906167984  0.7218449786305428  1.0000
  H   H4        1.0  0.6365434676408768  0.09266655147075653  0.5317412633448839  1.0000
  S   S1        1.0  0.5690850615501404  0.581859678030014  0.9605481177568436  1.0000
  S   S2        1.0  0.17021667957305908  0.6739757061004639  0.658483624458313  1.0000
  S   S3        1.0  0.8824498797766864  0.3232332319021225  0.8139322251081467  1.0000
  S   S4        1.0  0.2537948563694954  0.1325838416814804  0.2703910246491432  1.0000
  O   O1        1.0  0.1793114827014506  0.4352980349212885  0.456624815473333  1.0000
  O   O2        1.0  0.37073848582804203  0.7106258776038885  0.08916701488487888  1.0000
  O   O3        1.0  0.43893052265048027  0.1972763673402369  0.16382491445619962  1.0000
  O   O4        1.0  0.8405879864003509  0.19519823894370347  0.7831726660951972  1.0000
  O   O5        1.0  0.9155433236155659  0.5409466609708034  0.5396816479042172  1.0000
  O   O6        1.0  0.7269794680178165  0.4485783278942108  0.45206576120108366  1.0000
  O   O7        1.0  0.9156450098380446  0.8321875762194395  0.4727439093403518  1.0000
  O   O8        1.0  0.4973389217630029  0.264950911863707  0.20214862702414393  1.0000
data_image59
_chemical_formula_structural       Cs4H4S4O8
_chemical_formula_sum              "Cs4 H4 S4 O8"
_cell_length_a       5.817371
_cell_length_b       6.411326074356613
_cell_length_c       12.038703921785974
_cell_angle_alpha    93.7344795294116
_cell_angle_beta     90.0
_cell_angle_gamma    116.97998093780937

_space_group_name_H-M_alt    "P 1"
_space_group_IT_number       1

loop_
  _space_group_symop_operation_xyz
  'x, y, z'

loop_
  _atom_site_type_symbol
  _atom_site_label
  _atom_site_symmetry_multiplicity
  _atom_site_fract_x
  _atom_site_fract_y
  _atom_site_fract_z
  _atom_site_occupancy
  Cs  Cs1       1.0  0.94905945379287  0.2708585783839226  0.6288538128137589  1.0000
  Cs  Cs2       1.0  0.7143458444625139  0.9183724299073219  0.2506547886878252  1.0000
  Cs  Cs3       1.0  0.13797692954540253  0.9823516756296158  0.8626890140585601  1.0000
  Cs  Cs4       1.0  0.34195222333073616  0.40766786225140095  0.22434095852077007  1.0000
  H   H1        1.0  0.7273753797635436  0.5456886645406485  0.5509056597948074  1.0000
  H   H2        1.0  0.06116279773414135  0.41062844544649124  0.7566897086799145  1.0000
  H   H3        1.0  0.9699930250644684  0.456342488527298  0.16747524589300156  1.0000
  H   H4        1.0  0.2753840535879135  0.24049855768680573  0.47649222053587437  1.0000
  S   S1        1.0  0.8813264966011047  0.7246136665344238  0.4294230751693249  1.0000
  S   S2        1.0  0.6919552683830261  0.4211913049221039  0.8462543543428183  1.0000
  S   S3        1.0  0.8009842499159276  0.6023195423185825  0.4414727557450533  1.0000
  S   S4        1.0  0.7410768792033195  0.8072289936244488  0.5283192619681358  1.0000
  O   O1        1.0  0.547871908172965  0.6014690492302179  0.45415983675047755  1.0000
  O   O2        1.0  0.5143954493105412  0.25982525665313005  0.7530133130494505  1.0000
  O   O3        1.0  0.9491778868250549  0.8133297604508698  0.9810733302074368  1.0000
  O   O4        1.0  0.6356467184377834  0.5938043283531442  0.4981994692934677  1.0000
  O   O5        1.0  0.31145075615495443  0.03637222555698827  0.4134115686174482  1.0000
  O   O6        1.0  0.6766649149358273  0.16386008821427822  0.6379808229394257  1.0000
  O   O7        1.0  0.3853819170035422  0.8136306167580187  0.1215540380217135  1.0000
  O   O8        1.0  0.06636774516664445  0.6448383241076954  0.22973945178091526  1.0000
data_image60
_chemical_formula_structural       Cs4H4S4O8
_chemical_formula_sum              "Cs4 H4 S4 O8"
_cell_length_a       5.817371
_cell_length_b       6.411326074356613
_cell_length_c       12.038703921785974
_cell_angle_alpha    93.7344795294116
_cell_angle_beta     90.0
_cell_angle_gamma    116.97998093780937

_space_group_name_H-M_alt    "P 1"
_space_group_IT_number       1

loop_
  _space_group_symop_operation_xyz
  'x, y, z'

loop_
  _atom_site_type_symbol
  _atom_site_label
  _atom_site_symmetry_multiplicity
  _atom_site_fract_x
  _atom_site_fract_y
  _atom_site_fract_z
  _atom_site_occupancy
  Cs  Cs1       1.0  0.24530565179884434  0.39223105553537607  0.9158111978322268  1.0000
  Cs  Cs2       1.0  0.4888236541301012  0.9309594370424747  0.4338077809661627  1.0000
  Cs  Cs3       1.0  0.7914775833487511  0.8924177400767803  0.4181335447356105  1.0000
  Cs  Cs4       1.0  0.24459146335721016  0.9915101528167725  0.35956060281023383  1.0000
  H   H1        1.0  0.36260731518268585  0.3229184653609991  0.2692609056830406  1.0000
  H   H2        1.0  0.8366930596530437  0.3463886799290776  0.5516004674136639  1.0000
  H   H3        1.0  0.006094329059123993  0.7515559047460556  0.33666823245584965  1.0000
  H   H4        1.0  0.8914472460746765  0.2918839156627655  0.6374189192429185  1.0000
  S   S1        1.0  0.1191186010837555  0.5687800049781799  0.2817871533334255  1.0000
  S   S2        1.0  0.9196387678384781  0.31552964448928833  0.7542825136333704  1.0000
  S   S3        1.0  0.5373944230377674  0.9125533737242222  0.7751268371939659  1.0000
  S   S4        1.0  0.3579808622598648  0.4721797816455364  0.3201262131333351  1.0000
  O   O1        1.0  0.4938063882291317  0.6312513891607523  0.2075803680345416  1.0000
  O   O2        1.0  0.28258128464221954  0.813247550278902  0.1289802091778256  1.0000
  O   O3        1.0  0.09927794733084738  0.592335076071322  0.09232694239472039  1.0000
  O   O4        1.0  0.6663498959969729  0.9528789989417419  0.8519212976098061  1.0000
  O   O5        1.0  0.044549898244440556  0.19528427917975932  0.644708463922143  1.0000
  O   O6        1.0  0.9919673763215542  0.6410170700401068  0.08841537404805422  1.0000
  O   O7        1.0  0.34187780460342765  0.9123670975677669  0.5501854792237282  1.0000
  O   O8        1.0  0.03866163722705096  0.4299983882228844  0.1536170293111354  1.0000
data_image61
_chemical_formula_structural       Cs4H4S4O8
_chemical_formula_sum              "Cs4 H4 S4 O8"
_cell_length_a       5.817371
_cell_length_b       6.411326074356613
_cell_length_c       12.038703921785974
_cell_angle_alpha    93.7344795294116
_cell_angle_beta     90.0
_cell_angle_gamma    116.97998093780937

_space_group_name_H-M_alt    "P 1"
_space_group_IT_number       1

loop_
  _space_group_symop_operation_xyz
  'x, y, z'

loop_
  _atom_site_type_symbol
  _atom_site_label
  _atom_site_symmetry_multiplicity
  _atom_site_fract_x
  _atom_site_fract_y
  _atom_site_fract_z
  _atom_site_occupancy
  Cs  Cs1       1.0  0.9980107750743628  0.33294983953237534  0.013577111065387726  1.0000
  Cs  Cs2       1.0  0.690790357068181  0.09201173298060894  0.5344323758035898  1.0000
  Cs  Cs3       1.0  0.3166072517633438  0.3252318985760212  0.2183598349802196  1.0000
  Cs  Cs4       1.0  0.3747092895209789  0.26878712698817253  0.8094855191884562  1.0000
  H   H1        1.0  0.986505376175046  0.4898558119311929  0.045403655618429184  1.0000
  H   H2        1.0  0.5136470422148705  0.5913370912894607  0.8667792491614819  1.0000
  H   H3        1.0  0.7748811477795243  0.12675828114151955  0.3903936594724655  1.0000
  H   H4        1.0  0.9328251034021378  0.2227412462234497  0.8803457645699382  1.0000
  S   S1        1.0  0.4605638086795807  0.211381733417511  0.3368094153702259  1.0000
  S   S2        1.0  0.25160442292690277  0.24631009250879288  0.05717292055487633  1.0000
  S   S3        1.0  0.7602675631642342  0.5141911879181862  0.3656601719558239  1.0000
  S   S4        1.0  0.7060110121965408  0.40854587033391  0.8264919742941856  1.0000
  O   O1        1.0  0.8576658461242914  0.6687700487673283  0.3527847963850945  1.0000
  O   O2        1.0  0.5392172653228045  0.12492824532091618  0.45192518655676395  1.0000
  O   O3        1.0  0.46644993347581476  0.5103485658764839  0.5016796137206256  1.0000
  O   O4        1.0  0.46393258892931044  0.3955692502204329  0.36459181166719645  1.0000
  O   O5        1.0  0.7747976270038635  0.04960757927619852  0.18929628608748317  1.0000
  O   O6        1.0  0.01738567277789116  0.38602805510163307  0.7270211228169501  1.0000
  O   O7        1.0  0.44989313930273056  0.15460236417129636  0.16619817866012454  1.0000
  O   O8        1.0  0.30791391822276637  0.3203927845461294  0.6195226766867563  1.0000
data_image62
_chemical_formula_structural       Cs4H4S4O8
_chemical_formula_sum              "Cs4 H4 S4 O8"
_cell_length_a       5.817371
_cell_length_b       6.411326074356613
_cell_length_c       12.038703921785974
_cell_angle_alpha    93.7344795294116
_cell_angle_beta     90.0
_cell_angle_gamma    116.97998093780937

_space_group_name_H-M_alt    "P 1"
_space_group_IT_number       1

loop_
  _space_group_symop_operation_xyz
  'x, y, z'

loop_
  _atom_site_type_symbol
  _atom_site_label
  _atom_site_symmetry_multiplicity
  _atom_site_fract_x
  _atom_site_fract_y
  _atom_site_fract_z
  _atom_site_occupancy
  Cs  Cs1       1.0  0.7321198415011168  0.9693852458149195  0.6589340530335903  1.0000
  Cs  Cs2       1.0  0.7135679889470339  0.06078891921788454  0.11365208821371198  1.0000
  Cs  Cs3       1.0  0.35308664478361607  0.6511967666447163  0.7433357769623399  1.0000
  Cs  Cs4       1.0  0.5149631164968014  0.8700787853449583  0.8875258781481534  1.0000
  H   H1        1.0  0.2492042202502489  0.6299091400578618  0.4318949654698372  1.0000
  H   H2        1.0  0.3238862957805395  0.8966821637004614  0.2885175347328186  1.0000
  H   H3        1.0  0.665170356631279  0.4963066354393959  0.8344432674348354  1.0000
  H   H4        1.0  0.2989777624607086  0.2631606310606003  0.4352398752234876  1.0000
  S   S1        1.0  0.3873825669288635  0.953406885266304  0.40505763329565525  1.0000
  S   S2        1.0  0.5515840947628021  0.37723806500434875  0.5696653327904642  1.0000
  S   S3        1.0  0.5885914191603661  0.5325344353914261  0.4561348222196102  1.0000
  S   S4        1.0  0.17704324424266815  0.7521842159330845  0.5323989763855934  1.0000
  O   O1        1.0  0.564903013408184  0.27233198937028646  0.8935582167468965  1.0000
  O   O2        1.0  0.5884280148893595  0.21813639532774687  0.02670920008677058  1.0000
  O   O3        1.0  0.07338528902619146  0.8544318005442619  0.5384043572703376  1.0000
  O   O4        1.0  0.25454488885588944  0.7842839082004502  0.5002490571932867  1.0000
  O   O5        1.0  0.697995015187189  0.7606309358088765  0.785312483785674  1.0000
  O   O6        1.0  0.3343067243695259  0.1985878236591816  0.696133348159492  1.0000
  O   O7        1.0  0.7053571260767058  0.5067773964256048  0.7342068529687822  1.0000
  O   O8        1.0  0.837486341712065  0.7626957555767149  0.9348133690655231  1.0000
data_image63
_chemical_formula_structural       Cs4H4S4O8
_chemical_formula_sum              "Cs4 H4 S4 O8"
_cell_length_a       5.817371
_cell_length_b       6.411326074356613
_cell_length_c       12.038703921785974
_cell_angle_alpha    93.7344795294116
_cell_angle_beta     90.0
_cell_angle_gamma    116.97998093780937

_space_group_name_H-M_alt    "P 1"
_space_group_IT_number       1

loop_
  _space_group_symop_operation_xyz
  'x, y, z'

loop_
  _atom_site_type_symbol
  _atom_site_label
  _atom_site_symmetry_multiplicity
  _atom_site_fract_x
  _atom_site_fract_y
  _atom_site_fract_z
  _atom_site_occupancy
  Cs  Cs1       1.0  0.8940731808543205  0.7280279686674476  0.804246949031949  1.0000
  Cs  Cs2       1.0  0.612812327221036  0.9954785080626607  0.04819346498697996  1.0000
  Cs  Cs3       1.0  0.6106792073696852  0.82846893183887  0.9174722097814083  1.0000
  Cs  Cs4       1.0  0.5474852211773396  0.9518823530524969  0.027459044940769672  1.0000
  H   H1        1.0  0.5375432781875134  0.44086951669305563  0.8338144198060036  1.0000
  H   H2        1.0  0.752810007892549  0.6426678784191608  0.2665768601000309  1.0000
  H   H3        1.0  0.030905043706297874  0.7576502151787281  0.7956326976418495  1.0000
  H   H4        1.0  0.03597860038280487  0.6052442640066147  0.9585335883311927  1.0000
  S   S1        1.0  0.3978913128376007  0.9559098184108734  0.7805908489972353  1.0000
  S   S2        1.0  0.2955538481473923  0.9448475688695908  0.47771346565832573  1.0000
  S   S3        1.0  0.9850147441029549  0.1540253385901451  0.961066946387291  1.0000
  S   S4        1.0  0.2435053028166294  0.24790431186556816  0.344579741358757  1.0000
  O   O1        1.0  0.08913718443363905  0.7173066167160869  0.8961384292924777  1.0000
  O   O2        1.0  0.10065797530114651  0.3490016106516123  0.763980719842948  1.0000
  O   O3        1.0  0.9534695305628702  0.7223750334233046  0.9432023104745895  1.0000
  O   O4        1.0  0.05317419208586216  0.2795560084050521  0.7015147068304941  1.0000
  O   O5        1.0  0.8695998210459948  0.05517931780559593  0.0032669445499777794  1.0000
  O   O6        1.0  0.034438591450452805  0.08684559911489487  0.8031409438699484  1.0000
  O   O7        1.0  0.24228846293408424  0.746016139164567  0.4481448628939688  1.0000
  O   O8        1.0  0.34028565013431944  0.4909775343257934  0.7344302015844733  1.0000
data_image64
_chemical_formula_structural       Cs4H4S4O8
_chemical_formula_sum              "Cs4 H4 S4 O8"
_cell_length_a       5.817371
_cell_length_b       6.411326074356613
_cell_length_c       12.038703921785974
_cell_angle_alpha    93.7344795294116
_cell_angle_beta     90.0
_cell_angle_gamma    116.97998093780937

_space_group_name_H-M_alt    "P 1"
_space_group_IT_number       1

loop_
  _space_group_symop_operation_xyz
  'x, y, z'

loop_
  _atom_site_type_symbol
  _atom_site_label
  _atom_site_symmetry_multiplicity
  _atom_site_fract_x
  _atom_site_fract_y
  _atom_site_fract_z
  _atom_site_occupancy
  Cs  Cs1       1.0  0.027939721010625362  0.1114564435556531  0.4934095460921526  1.0000
  Cs  Cs2       1.0  0.8916532341390848  0.4273129506036639  0.693686037324369  1.0000
  Cs  Cs3       1.0  0.9425218235701323  0.11309159360826015  0.5499753626063466  1.0000
  Cs  Cs4       1.0  0.03044421225786209  0.5995542407035828  0.3265444047283381  1.0000
  H   H1        1.0  0.45200010389089584  0.8622651742771268  0.910705916583538  1.0000
  H   H2        1.0  0.4128640880808234  0.8106538522988558  0.4561096578836441  1.0000
  H   H3        1.0  0.9061281178146601  0.5039469338953495  0.8355691935867071  1.0000
  H   H4        1.0  0.4399132877588272  0.33137595653533936  0.4803311238065362  1.0000
  S   S1        1.0  0.039135515689849854  0.8201380223035812  0.4749210812151432  1.0000
  S   S2        1.0  0.38794949650764465  0.7867452278733253  0.21851560031063855  1.0000
  S   S3        1.0  0.664856567978859  0.4579201117157936  0.641854714602232  1.0000
  S   S4        1.0  0.6342376656830311  0.0881233736872673  0.24009931087493896  1.0000
  O   O1        1.0  0.2934266207739711  0.24410812929272652  0.9855619515292346  1.0000
  O   O2        1.0  0.7384065855294466  0.9250059267506003  0.372659941756865  1.0000
  O   O3        1.0  0.2968845657305792  0.8355705165304244  0.9576173673849553  1.0000
  O   O4        1.0  0.9691931619308889  0.5166135986801237  0.4611114838626236  1.0000
  O   O5        1.0  0.8734482424333692  0.15514429690665565  0.842578720767051  1.0000
  O   O6        1.0  0.8775614388287067  0.05876152776181698  0.42419588239863515  1.0000
  O   O7        1.0  0.02540570730343461  0.047074354253709316  0.32650324050337076  1.0000
  O   O8        1.0  0.7087455246946774  0.7020543185062706  0.4348681156989187  1.0000
data_image65
_chemical_formula_structural       Cs4H4S4O8
_chemical_formula_sum              "Cs4 H4 S4 O8"
_cell_length_a       5.817371
_cell_length_b       6.411326074356613
_cell_length_c       12.038703921785974
_cell_angle_alpha    93.7344795294116
_cell_angle_beta     90.0
_cell_angle_gamma    116.97998093780937

_space_group_name_H-M_alt    "P 1"
_space_group_IT_number       1

loop_
  _space_group_symop_operation_xyz
  'x, y, z'

loop_
  _atom_site_type_symbol
  _atom_site_label
  _atom_site_symmetry_multiplicity
  _atom_site_fract_x
  _atom_site_fract_y
  _atom_site_fract_z
  _atom_site_occupancy
  Cs  Cs1       1.0  0.30672998260706663  0.8614794779568911  0.5424240250140429  1.0000
  Cs  Cs2       1.0  0.19132925011217594  0.6106946491636336  0.41415012814104557  1.0000
  Cs  Cs3       1.0  0.5900345221161842  0.6206111516803503  0.5019273217767477  1.0000
  Cs  Cs4       1.0  0.46220702677965164  0.3578316066414118  0.7481562693137676  1.0000
  H   H1        1.0  0.6222087517380714  0.9979476574808359  0.8574271742254496  1.0000
  H   H2        1.0  0.0018482143059372902  0.3474544258788228  0.24255889281630516  1.0000
  H   H3        1.0  0.12409164570271969  0.08169180527329445  0.9746394045650959  1.0000
  H   H4        1.0  0.9498570561408997  0.9074777364730835  0.5818027374334633  1.0000
  S   S1        1.0  0.4700077474117279  0.2772639989852905  0.6712894067168236  1.0000
  S   S2        1.0  0.47417959570884705  0.3342004641890526  0.1514238950330764  1.0000
  S   S3        1.0  0.4954695478081703  0.21981853246688843  0.6656208820641041  1.0000
  S   S4        1.0  0.7439006119966507  0.7191788777709007  0.197439044713974  1.0000
  O   O1        1.0  0.21521249134093523  0.09676638524979353  0.9795002267928794  1.0000
  O   O2        1.0  0.47023347951471806  0.8185246372595429  0.4408802050165832  1.0000
  O   O3        1.0  0.8618000416317955  0.5677713938057423  0.1872736318036914  1.0000
  O   O4        1.0  0.35148115875199437  0.7545496103120968  0.65892573306337  1.0000
  O   O5        1.0  0.5752233345992863  0.7341595662001055  0.03071377705782652  1.0000
  O   O6        1.0  0.23450907319784164  0.2033975087106228  0.3013886329717934  1.0000
  O   O7        1.0  0.6945611883420497  0.25841844640672207  0.6951400307007134  1.0000
  O   O8        1.0  0.16609603192773648  0.43869150406681  0.20039100549183786  1.0000
data_image66
_chemical_formula_structural       Cs4H4S4O8
_chemical_formula_sum              "Cs4 H4 S4 O8"
_cell_length_a       5.817371
_cell_length_b       6.411326074356613
_cell_length_c       12.038703921785974
_cell_angle_alpha    93.7344795294116
_cell_angle_beta     90.0
_cell_angle_gamma    116.97998093780937

_space_group_name_H-M_alt    "P 1"
_space_group_IT_number       1

loop_
  _space_group_symop_operation_xyz
  'x, y, z'

loop_
  _atom_site_type_symbol
  _atom_site_label
  _atom_site_symmetry_multiplicity
  _atom_site_fract_x
  _atom_site_fract_y
  _atom_site_fract_z
  _atom_site_occupancy
  Cs  Cs1       1.0  0.8251679372042418  0.7698892271146178  0.43572848848998547  1.0000
  Cs  Cs2       1.0  0.36549124773591757  0.5323645267635584  0.20802415907382965  1.0000
  Cs  Cs3       1.0  0.7540436759591103  0.23280473053455353  0.697435406036675  1.0000
  Cs  Cs4       1.0  0.9172615632414818  0.5500441454350948  0.7211617133580148  1.0000
  H   H1        1.0  0.5474392659962177  0.28728745225816965  0.9700250960886478  1.0000
  H   H2        1.0  0.8143827924504876  0.546236957423389  0.7486874274909496  1.0000
  H   H3        1.0  0.8538615312427282  0.34750740975141525  0.6985057666897774  1.0000
  H   H4        1.0  0.008464336395263672  0.843395546078682  0.20683859381824732  1.0000
  S   S1        1.0  0.6636675894260406  0.6371148824691772  0.060534942895174026  1.0000
  S   S2        1.0  0.84059938788414  0.4398408830165863  0.06939483503811061  1.0000
  S   S3        1.0  0.5828048661351204  0.31703902781009674  0.06069473549723625  1.0000
  S   S4        1.0  0.2193365953862667  0.8266843780875206  0.9539496749639511  1.0000
  O   O1        1.0  0.3105164533481002  0.9126369478181005  0.2426774314371869  1.0000
  O   O2        1.0  0.5341167952865362  0.483305879868567  0.49530397390481085  1.0000
  O   O3        1.0  0.9545838439371437  0.9530648090876639  0.9478493317728862  1.0000
  O   O4        1.0  0.6047742487862706  0.39094769256189466  0.8366052077617496  1.0000
  O   O5        1.0  0.10272865649312735  0.39434559250366874  0.9665073133073747  1.0000
  O   O6        1.0  0.8583739958703518  0.9884621985256672  0.9677974903024733  1.0000
  O   O7        1.0  0.5316449482925236  0.3559808749705553  0.7123268391005695  1.0000
  O   O8        1.0  0.8280383569363039  0.16683623800054193  0.826714503346011  1.0000
data_image67
_chemical_formula_structural       Cs4H4S4O8
_chemical_formula_sum              "Cs4 H4 S4 O8"
_cell_length_a       5.817371
_cell_length_b       6.411326074356613
_cell_length_c       12.038703921785974
_cell_angle_alpha    93.7344795294116
_cell_angle_beta     90.0
_cell_angle_gamma    116.97998093780937

_space_group_name_H-M_alt    "P 1"
_space_group_IT_number       1

loop_
  _space_group_symop_operation_xyz
  'x, y, z'

loop_
  _atom_site_type_symbol
  _atom_site_label
  _atom_site_symmetry_multiplicity
  _atom_site_fract_x
  _atom_site_fract_y
  _atom_site_fract_z
  _atom_site_occupancy
  Cs  Cs1       1.0  0.8932562433183193  0.5266648977994919  0.014782937243580818  1.0000
  Cs  Cs2       1.0  0.5720846289768815  0.3908602655865252  0.6866693682968616  1.0000
  Cs  Cs3       1.0  0.6316477153450251  0.13564853928983212  0.162229735404253  1.0000
  Cs  Cs4       1.0  0.34324437379837036  0.3788549229502678  0.28786817099899054  1.0000
  H   H1        1.0  0.45291781052947044  0.35086800064891577  0.2799466997385025  1.0000
  H   H2        1.0  0.7809331640601158  0.12584317661821842  0.7952268458902836  1.0000
  H   H3        1.0  0.16706261597573757  0.7477928847074509  0.8686757870018482  1.0000
  H   H4        1.0  0.6340786963701248  0.8289513885974884  0.040005707647651434  1.0000
  S   S1        1.0  0.9336082339286804  0.268832266330719  0.7620575502514839  1.0000
  S   S2        1.0  0.9873263835906982  0.871064305305481  0.17289466666989028  1.0000
  S   S3        1.0  0.1573815494775772  0.6807926222681999  0.06758240610361099  1.0000
  S   S4        1.0  0.17317011952400208  0.9617233015596867  0.5603654310107231  1.0000
  O   O1        1.0  0.42675422225147486  0.4804316349327564  0.7546661979286  1.0000
  O   O2        1.0  0.048830121755599976  0.42745715100318193  0.7525385700864717  1.0000
  O   O3        1.0  0.5497132419841364  0.21046936884522438  0.8825308027444407  1.0000
  O   O4        1.0  0.8357252002460882  0.7525782490847632  0.11700047890190035  1.0000
  O   O5        1.0  0.6005861535668373  0.679123813752085  0.4687862794380635  1.0000
  O   O6        1.0  0.5766969248652458  0.9865939058363438  0.32850289484485984  1.0000
  O   O7        1.0  0.9316544736502692  0.6836269916966558  0.7477961028926075  1.0000
  O   O8        1.0  0.4043351724103559  0.7230943541508168  0.06627345620654523  1.0000
data_image68
_chemical_formula_structural       Cs4H4S4O8
_chemical_formula_sum              "Cs4 H4 S4 O8"
_cell_length_a       5.817371
_cell_length_b       6.411326074356613
_cell_length_c       12.038703921785974
_cell_angle_alpha    93.7344795294116
_cell_angle_beta     90.0
_cell_angle_gamma    116.97998093780937

_space_group_name_H-M_alt    "P 1"
_space_group_IT_number       1

loop_
  _space_group_symop_operation_xyz
  'x, y, z'

loop_
  _atom_site_type_symbol
  _atom_site_label
  _atom_site_symmetry_multiplicity
  _atom_site_fract_x
  _atom_site_fract_y
  _atom_site_fract_z
  _atom_site_occupancy
  Cs  Cs1       1.0  0.2997902175411582  0.6321619423106313  0.8344845231622458  1.0000
  Cs  Cs2       1.0  0.7164142737165093  0.8297095433808863  0.7937014536000788  1.0000
  Cs  Cs3       1.0  0.5737035516649485  0.018496396020054817  0.9387673065066338  1.0000
  Cs  Cs4       1.0  0.9401362389326096  0.9935837220400572  0.44527708599343896  1.0000
  H   H1        1.0  0.3356489911675453  0.553042690269649  0.28063667193055153  1.0000
  H   H2        1.0  0.35506442468613386  0.6884316364303231  0.17286206781864166  1.0000
  H   H3        1.0  0.08570343442261219  0.7864509522914886  0.646218977868557  1.0000
  H   H4        1.0  0.961670458316803  0.6587081402540207  0.9628369137644768  1.0000
  S   S1        1.0  0.5985247194766998  0.7108733355998993  0.5046381019055843  1.0000
  S   S2        1.0  0.788600355386734  0.5530420616269112  0.5405758807901293  1.0000
  S   S3        1.0  0.5569223389029503  0.986700750887394  0.48293541744351387  1.0000
  S   S4        1.0  0.5797946751117706  0.5045182444155216  0.9994848966598511  1.0000
  O   O1        1.0  0.5539521891623735  0.45735843013972044  0.5258777466369793  1.0000
  O   O2        1.0  0.287628710269928  0.22274440620094538  0.12143069441663101  1.0000
  O   O3        1.0  0.11539166630245745  0.5226507815532386  0.10315250768326223  1.0000
  O   O4        1.0  0.45353100064676255  0.9902674650074914  0.6263829407980666  1.0000
  O   O5        1.0  0.3364066241774708  0.963560844771564  0.034231159603223205  1.0000
  O   O6        1.0  0.9857562221586704  0.9033962339162827  0.21872507082298398  1.0000
  O   O7        1.0  0.9784547213930637  0.38364274613559246  0.006536960136145353  1.0000
  O   O8        1.0  0.5367198865860701  0.9047673193272203  0.9104380788048729  1.0000
data_image69
_chemical_formula_structural       Cs4H4S4O8
_chemical_formula_sum              "Cs4 H4 S4 O8"
_cell_length_a       5.817371
_cell_length_b       6.411326074356613
_cell_length_c       12.038703921785974
_cell_angle_alpha    93.7344795294116
_cell_angle_beta     90.0
_cell_angle_gamma    116.97998093780937

_space_group_name_H-M_alt    "P 1"
_space_group_IT_number       1

loop_
  _space_group_symop_operation_xyz
  'x, y, z'

loop_
  _atom_site_type_symbol
  _atom_site_label
  _atom_site_symmetry_multiplicity
  _atom_site_fract_x
  _atom_site_fract_y
  _atom_site_fract_z
  _atom_site_occupancy
  Cs  Cs1       1.0  0.6736030858010054  0.6819783663377166  0.45438066497445107  1.0000
  Cs  Cs2       1.0  0.7330674510449171  0.6742237829603255  0.6228804024867713  1.0000
  Cs  Cs3       1.0  0.7970109973102808  0.7532851044088602  0.14326387085020542  1.0000
  Cs  Cs4       1.0  0.13878442347049713  0.2810537740588188  0.3079481846652925  1.0000
  H   H1        1.0  0.9531988296657801  0.34393349569290876  0.5710653979331255  1.0000
  H   H2        1.0  0.6748927598819137  0.6031815651804209  0.7324699461460114  1.0000
  H   H3        1.0  0.022843962535262108  0.7670029103755951  0.6080165319144726  1.0000
  H   H4        1.0  0.019221782684326172  0.890305370092392  0.3059555604122579  1.0000
  S   S1        1.0  0.21909397840499878  0.8088855147361755  0.9503510259091854  1.0000
  S   S2        1.0  0.044048428535461426  0.7570803910493851  0.6815489828586578  1.0000
  S   S3        1.0  0.0020421668887138367  0.496204674243927  0.5440611802041531  1.0000
  S   S4        1.0  0.08788517862558365  0.835618432611227  0.9412096366286278  1.0000
  O   O1        1.0  0.887400140054524  0.5637161154299974  0.024189400020986795  1.0000
  O   O2        1.0  0.09162002801895142  0.18331743776798248  0.3978856498724781  1.0000
  O   O3        1.0  0.9570046650478616  0.004401518497616053  0.4596044692443684  1.0000
  O   O4        1.0  0.4440255061490461  0.5554938494460657  0.6680578890955076  1.0000
  O   O5        1.0  0.43682908453047276  0.5715902377851307  0.6210972908884287  1.0000
  O   O6        1.0  0.48554856330156326  0.4975502286106348  0.6613146136514843  1.0000
  O   O7        1.0  0.6254619425162673  0.07818894740194082  0.9513562759384513  1.0000
  O   O8        1.0  0.16603043602663092  0.6503577327821404  0.5474652650300413  1.0000
data_image70
_chemical_formula_structural       Cs4H4S4O8
_chemical_formula_sum              "Cs4 H4 S4 O8"
_cell_length_a       5.817371
_cell_length_b       6.411326074356613
_cell_length_c       12.038703921785974
_cell_angle_alpha    93.7344795294116
_cell_angle_beta     90.0
_cell_angle_gamma    116.97998093780937

_space_group_name_H-M_alt    "P 1"
_space_group_IT_number       1

loop_
  _space_group_symop_operation_xyz
  'x, y, z'

loop_
  _atom_site_type_symbol
  _atom_site_label
  _atom_site_symmetry_multiplicity
  _atom_site_fract_x
  _atom_site_fract_y
  _atom_site_fract_z
  _atom_site_occupancy
  Cs  Cs1       1.0  0.007481802254915237  0.7766570160165429  0.2819243557751179  1.0000
  Cs  Cs2       1.0  0.7832905277609825  0.7446972150355577  0.6906549397099297  1.0000
  Cs  Cs3       1.0  0.6364302467554808  0.139484491199255  0.37821319978684187  1.0000
  Cs  Cs4       1.0  0.14566107094287872  0.5883846282958984  0.22673270851373672  1.0000
  H   H1        1.0  0.07556700333952904  0.7842662381008267  0.17603322677314281  1.0000
  H   H2        1.0  0.21690019965171814  0.3795192614197731  0.03240671753883362  1.0000
  H   H3        1.0  0.507661847397685  0.19424499571323395  0.8479800820350647  1.0000
  H   H4        1.0  0.8638316094875336  0.09020943939685822  0.5136223696172237  1.0000
  S   S1        1.0  0.8159144520759583  0.29879727959632874  0.27375998720526695  1.0000
  S   S2        1.0  0.67689448595047  0.2971828058362007  0.11069185379892588  1.0000
  S   S3        1.0  0.9638665318489075  0.897858515381813  0.9452617689967155  1.0000
  S   S4        1.0  0.5530063137412071  0.8705526068806648  0.12406707555055618  1.0000
  O   O1        1.0  0.1332021774724126  0.7649960871785879  0.6845795502886176  1.0000
  O   O2        1.0  0.06508886627852917  0.683035971596837  0.8701024361071177  1.0000
  O   O3        1.0  0.07994709978811443  0.014924600720405579  0.908401187043637  1.0000
  O   O4        1.0  0.12592167931143194  0.6463674793485552  0.8630424943985417  1.0000
  O   O5        1.0  0.4738909581210464  0.10836133232805878  0.8310632952488959  1.0000
  O   O6        1.0  0.6893067546188831  0.17341850884258747  0.1107757892459631  1.0000
  O   O7        1.0  0.6215158951235935  0.3699412140995264  0.5884810909628868  1.0000
  O   O8        1.0  0.36395877148606814  0.295508265029639  0.8346638375660405  1.0000
data_image71
_chemical_formula_structural       Cs4H4S4O8
_chemical_formula_sum              "Cs4 H4 S4 O8"
_cell_length_a       5.817371
_cell_length_b       6.411326074356613
_cell_length_c       12.038703921785974
_cell_angle_alpha    93.7344795294116
_cell_angle_beta     90.0
_cell_angle_gamma    116.97998093780937

_space_group_name_H-M_alt    "P 1"
_space_group_IT_number       1

loop_
  _space_group_symop_operation_xyz
  'x, y, z'

loop_
  _atom_site_type_symbol
  _atom_site_label
  _atom_site_symmetry_multiplicity
  _atom_site_fract_x
  _atom_site_fract_y
  _atom_site_fract_z
  _atom_site_occupancy
  Cs  Cs1       1.0  0.4379095397889614  0.4035617671906948  0.06562496349215508  1.0000
  Cs  Cs2       1.0  0.7331184931099415  0.24438016768544912  0.2091285572387278  1.0000
  Cs  Cs3       1.0  0.7677292563021183  0.11714466102421284  0.8019719505682588  1.0000
  Cs  Cs4       1.0  0.8784898743033409  0.12155384570360184  0.27672467567026615  1.0000
  H   H1        1.0  0.30015415931120515  0.3650727099739015  0.8270735964179039  1.0000
  H   H2        1.0  0.5322489812970161  0.9561087237671018  0.8604028858244419  1.0000
  H   H3        1.0  0.9102143328636885  0.20436754822731018  0.9934961348772049  1.0000
  H   H4        1.0  0.33240608870983124  0.565828263759613  0.6594775742851198  1.0000
  S   S1        1.0  0.6322808265686035  0.4415016770362854  0.43981125578284264  1.0000
  S   S2        1.0  0.49284884333610535  0.061935991048812866  0.7798316706903279  1.0000
  S   S3        1.0  0.018768005073070526  0.27401428669691086  0.5397491119801998  1.0000
  S   S4        1.0  0.07845501601696014  0.3528232127428055  0.87412990629673  1.0000
  O   O1        1.0  0.3609454007819295  0.5447000171989202  0.425173302879557  1.0000
  O   O2        1.0  0.2689163312315941  0.4288883423432708  0.49319629376986995  1.0000
  O   O3        1.0  0.7239587490912527  0.9515155614353716  0.6131692405324429  1.0000
  O   O4        1.0  0.10900267562828958  0.9527728627435863  0.5549298104597256  1.0000
  O   O5        1.0  0.6326263179071248  0.06980538461357355  0.9366794596426189  1.0000
  O   O6        1.0  0.5108576379716396  0.3306992743164301  0.6531014577485621  1.0000
  O   O7        1.0  0.6908528950880282  0.8873275257647038  0.19984910590574145  1.0000
  O   O8        1.0  0.6071518205862958  0.9000527909956872  0.46817034808918834  1.0000
data_image72
_chemical_formula_structural       Cs4H4S4O8
_chemical_formula_sum              "Cs4 H4 S4 O8"
_cell_length_a       5.817371
_cell_length_b       6.411326074356613
_cell_length_c       12.038703921785974
_cell_angle_alpha    93.7344795294116
_cell_angle_beta     90.0
_cell_angle_gamma    116.97998093780937

_space_group_name_H-M_alt    "P 1"
_space_group_IT_number       1

loop_
  _space_group_symop_operation_xyz
  'x, y, z'

loop_
  _atom_site_type_symbol
  _atom_site_label
  _atom_site_symmetry_multiplicity
  _atom_site_fract_x
  _atom_site_fract_y
  _atom_site_fract_z
  _atom_site_occupancy
  Cs  Cs1       1.0  0.6368414461612701  0.44533583987504244  0.04316161759197712  1.0000
  Cs  Cs2       1.0  0.8324540108442307  0.7488410230726004  0.9339697216637433  1.0000
  Cs  Cs3       1.0  0.4809563495218754  0.08885038085281849  0.8649441972374916  1.0000
  Cs  Cs4       1.0  0.7796574160456657  0.2490016408264637  0.907839308027178  1.0000
  H   H1        1.0  0.34318334120325744  0.9229457504115999  0.29576434940099716  1.0000
  H   H2        1.0  0.795665267854929  0.1682677837088704  0.24015112593770027  1.0000
  H   H3        1.0  0.722774850204587  0.9704591035842896  0.46332282572984695  1.0000
  H   H4        1.0  0.8753930777311325  0.04860377311706543  0.8366341954097152  1.0000
  S   S1        1.0  0.04024016857147217  0.6421235203742981  0.47374017909169197  1.0000
  S   S2        1.0  0.6582843512296677  0.016464553773403168  0.49810883728787303  1.0000
  S   S3        1.0  0.5142900794744492  0.7707067281007767  0.37308093905448914  1.0000
  S   S4        1.0  0.7874829918146133  0.7580267935991287  0.9872980564832687  1.0000
  O   O1        1.0  0.03630304429680109  0.3762791035696864  0.28699642047286034  1.0000
  O   O2        1.0  0.16326490603387356  0.5554935103282332  0.45739199058152735  1.0000
  O   O3        1.0  0.010928761214017868  0.4889163360930979  0.884548625559546  1.0000
  O   O4        1.0  0.41970581968780607  0.8796531358966604  0.8399813309079036  1.0000
  O   O5        1.0  0.4239730949047953  0.8838292415020987  0.10597017873078585  1.0000
  O   O6        1.0  0.7357334047555923  0.2771161962300539  0.10022824117913842  1.0000
  O   O7        1.0  0.004835100728087127  0.765087834559381  0.7560465149581432  1.0000
  O   O8        1.0  0.4833413435553666  0.4824733107816428  0.611599582945928  1.0000
data_image73
_chemical_formula_structural       Cs4H4S4O8
_chemical_formula_sum              "Cs4 H4 S4 O8"
_cell_length_a       5.817371
_cell_length_b       6.411326074356613
_cell_length_c       12.038703921785974
_cell_angle_alpha    93.7344795294116
_cell_angle_beta     90.0
_cell_angle_gamma    116.97998093780937

_space_group_name_H-M_alt    "P 1"
_space_group_IT_number       1

loop_
  _space_group_symop_operation_xyz
  'x, y, z'

loop_
  _atom_site_type_symbol
  _atom_site_label
  _atom_site_symmetry_multiplicity
  _atom_site_fract_x
  _atom_site_fract_y
  _atom_site_fract_z
  _atom_site_occupancy
  Cs  Cs1       1.0  0.6378692202270031  0.408782503567636  0.19151301681995392  1.0000
  Cs  Cs2       1.0  0.8408964555710554  0.38793707452714443  0.7642257621046156  1.0000
  Cs  Cs3       1.0  0.31130258180201054  0.03936136141419411  0.6428146036341786  1.0000
  Cs  Cs4       1.0  0.8350422754883766  0.4680928587913513  0.24182138871401548  1.0000
  H   H1        1.0  0.27587507059797645  0.5754699017852545  0.5787912718951702  1.0000
  H   H2        1.0  0.37064533680677414  0.582593958824873  0.08161674439907074  1.0000
  H   H3        1.0  0.8847242780029774  0.9425658360123634  0.8649319671094418  1.0000
  H   H4        1.0  0.39286063611507416  0.33127744495868683  0.03425015963148326  1.0000
  S   S1        1.0  0.19797411561012268  0.7921894788742065  0.0157981482334435  1.0000
  S   S2        1.0  0.2648056745529175  0.14174821227788925  0.271871127653867  1.0000
  S   S3        1.0  0.26060376316308975  0.0635756105184555  0.39521636068820953  1.0000
  S   S4        1.0  0.46583808958530426  0.23117804527282715  0.21797361969947815  1.0000
  O   O1        1.0  0.8443308603018522  0.09751622658222914  0.05066584167070687  1.0000
  O   O2        1.0  0.1571768820285797  0.5981223294511437  0.15708697185618803  1.0000
  O   O3        1.0  0.12273446610197425  0.37297285348176956  0.7353715350036509  1.0000
  O   O4        1.0  0.9214707667706534  0.220864619477652  0.36665450513828546  1.0000
  O   O5        1.0  0.6293496985454112  0.397511194110848  0.38688739435747266  1.0000
  O   O6        1.0  0.9821972846984863  0.6228475458920002  0.4685606276616454  1.0000
  O   O7        1.0  0.17462250834796578  0.9177218489348888  0.6589109236374497  1.0000
  O   O8        1.0  0.10753212610143237  0.7504063411615789  0.16331026784610003  1.0000
data_image74
_chemical_formula_structural       Cs4H4S4O8
_chemical_formula_sum              "Cs4 H4 S4 O8"
_cell_length_a       5.817371
_cell_length_b       6.411326074356613
_cell_length_c       12.038703921785974
_cell_angle_alpha    93.7344795294116
_cell_angle_beta     90.0
_cell_angle_gamma    116.97998093780937

_space_group_name_H-M_alt    "P 1"
_space_group_IT_number       1

loop_
  _space_group_symop_operation_xyz
  'x, y, z'

loop_
  _atom_site_type_symbol
  _atom_site_label
  _atom_site_symmetry_multiplicity
  _atom_site_fract_x
  _atom_site_fract_y
  _atom_site_fract_z
  _atom_site_occupancy
  Cs  Cs1       1.0  0.6649303510785103  0.6746860286220908  0.577270595356822  1.0000
  Cs  Cs2       1.0  0.9152810852974653  0.215807287953794  0.6050741120707244  1.0000
  Cs  Cs3       1.0  0.2697409372776747  0.8803736809641123  0.3462109579704702  1.0000
  Cs  Cs4       1.0  0.20258309692144394  0.4384752996265888  0.635579377412796  1.0000
  H   H1        1.0  0.37927685026079416  0.8873233608901501  0.41813397622900084  1.0000
  H   H2        1.0  0.8113177195191383  0.1354530155658722  0.3884556330740452  1.0000
  H   H3        1.0  0.6406121775507927  0.46658627688884735  0.21956299990415573  1.0000
  H   H4        1.0  0.20418015122413635  0.810789555311203  0.3519431585446  1.0000
  S   S1        1.0  0.35146212577819824  0.8224720060825348  0.4194207526743412  1.0000
  S   S2        1.0  0.9001503735780716  0.03193862736225128  0.3014325639232993  1.0000
  S   S3        1.0  0.7041252180933952  0.10373243689537048  0.8509495779871941  1.0000
  S   S4        1.0  0.09200432896614075  0.3478671759366989  0.9279633834958076  1.0000
  O   O1        1.0  0.1917559988796711  0.1208735341206193  0.20616413722746074  1.0000
  O   O2        1.0  0.3437184290960431  0.5141703160479665  0.4965478323865682  1.0000
  O   O3        1.0  0.049605711828917265  0.9326333114877343  0.03032818859355757  1.0000
  O   O4        1.0  0.841589656076394  0.26531968254130334  0.10359729686751962  1.0000
  O   O5        1.0  0.10519597749225795  0.5516828127438203  0.019426336977630854  1.0000
  O   O6        1.0  0.46150099486112595  0.3663050588220358  0.7412155531346798  1.0000
  O   O7        1.0  0.7335603234823793  0.9424826139584184  0.46034762263298035  1.0000
  O   O8        1.0  0.34521048385067843  0.32753398455679417  0.6682485636556521  1.0000
data_image75
_chemical_formula_structural       Cs4H4S4O8
_chemical_formula_sum              "Cs4 H4 S4 O8"
_cell_length_a       5.817371
_cell_length_b       6.411326074356613
_cell_length_c       12.038703921785974
_cell_angle_alpha    93.7344795294116
_cell_angle_beta     90.0
_cell_angle_gamma    116.97998093780937

_space_group_name_H-M_alt    "P 1"
_space_group_IT_number       1

loop_
  _space_group_symop_operation_xyz
  'x, y, z'

loop_
  _atom_site_type_symbol
  _atom_site_label
  _atom_site_symmetry_multiplicity
  _atom_site_fract_x
  _atom_site_fract_y
  _atom_site_fract_z
  _atom_site_occupancy
  Cs  Cs1       1.0  0.33082302659749985  0.12477522995322943  0.2005792111158371  1.0000
  Cs  Cs2       1.0  0.3028033785521984  0.5134790828451514  0.8052807513158768  1.0000
  Cs  Cs3       1.0  0.20597791485488415  0.42614041827619076  0.002387821674346924  1.0000
  Cs  Cs4       1.0  0.4154973700642586  0.40188322961330414  0.9144299277104437  1.0000
  H   H1        1.0  0.20774687826633453  0.16995037719607353  0.5588731649768306  1.0000
  H   H2        1.0  0.3928021863102913  0.4694066010415554  0.27154260128736496  1.0000
  H   H3        1.0  0.5632458087056875  0.19724472612142563  0.9303861297667027  1.0000
  H   H4        1.0  0.029302239418029785  0.3446160703897476  0.8444452099502087  1.0000
  S   S1        1.0  0.027207016944885254  0.8402458727359772  0.9692382216453552  1.0000
  S   S2        1.0  0.8755891919136047  0.5808048397302628  0.838018114445731  1.0000
  S   S3        1.0  0.3389572575688362  0.5238359868526459  0.6827913485467434  1.0000
  S   S4        1.0  0.7211650907993317  0.3393305242061615  0.8765887767076492  1.0000
  O   O1        1.0  0.3746964316815138  0.6732969712466002  0.4036709261126816  1.0000
  O   O2        1.0  0.3115754770115018  0.6303447876125574  0.016204267856664956  1.0000
  O   O3        1.0  0.14558004215359688  0.09046537429094315  0.5713171560782939  1.0000
  O   O4        1.0  0.36444156512152404  0.09958424512296915  0.9620704913977534  1.0000
  O   O5        1.0  0.5357893509790301  0.5886295332456939  0.10609618411399424  1.0000
  O   O6        1.0  0.5934417545795441  0.5855393800884485  0.8042898182757199  1.0000
  O   O7        1.0  0.25398397055687383  0.1711572166532278  0.822111424524337  1.0000
  O   O8        1.0  0.26027580408845097  0.09128583944402635  0.3002696249168366  1.0000
data_image76
_chemical_formula_structural       Cs4H4S4O8
_chemical_formula_sum              "Cs4 H4 S4 O8"
_cell_length_a       5.817371
_cell_length_b       6.411326074356613
_cell_length_c       12.038703921785974
_cell_angle_alpha    93.7344795294116
_cell_angle_beta     90.0
_cell_angle_gamma    116.97998093780937

_space_group_name_H-M_alt    "P 1"
_space_group_IT_number       1

loop_
  _space_group_symop_operation_xyz
  'x, y, z'

loop_
  _atom_site_type_symbol
  _atom_site_label
  _atom_site_symmetry_multiplicity
  _atom_site_fract_x
  _atom_site_fract_y
  _atom_site_fract_z
  _atom_site_occupancy
  Cs  Cs1       1.0  0.6889171823859215  0.5568148363381624  0.7428449168801308  1.0000
  Cs  Cs2       1.0  0.7117263861000538  0.2596121318638325  0.008176554692909122  1.0000
  Cs  Cs3       1.0  0.3187727518379688  0.8504524752497673  0.49686450185254216  1.0000
  Cs  Cs4       1.0  0.8529301658272743  0.8064858093857765  0.3786124042235315  1.0000
  H   H1        1.0  0.03806072846055031  0.6429339982569218  0.8931491069670301  1.0000
  H   H2        1.0  0.5868897661566734  0.10126327723264694  0.7403215877711773  1.0000
  H   H3        1.0  0.8910744674503803  0.7662501558661461  0.03183239325881004  1.0000
  H   H4        1.0  0.6945454627275467  0.5551351606845856  0.49413077905774117  1.0000
  S   S1        1.0  0.11399894952774048  0.1813565492630005  0.08527589589357376  1.0000
  S   S2        1.0  0.9589833617210388  0.7305458262562752  0.3109554585535079  1.0000
  S   S3        1.0  0.787864550948143  0.32873257994651794  0.7856935411691666  1.0000
  S   S4        1.0  0.5191716402769089  0.8427503705024719  0.6645533218979836  1.0000
  O   O1        1.0  0.9433539602905512  0.5080772154033184  0.8338989864569157  1.0000
  O   O2        1.0  0.8132351273670793  0.21372775174677372  0.2220793820451945  1.0000
  O   O3        1.0  0.6333933544810861  0.8722947984933853  0.7475545799534302  1.0000
  O   O4        1.0  0.6367375162662938  0.2517695127171464  0.28411379345925525  1.0000
  O   O5        1.0  0.7475777938961983  0.2033159812563099  0.05445810733363032  1.0000
  O   O6        1.0  0.8550959378480911  0.9483636617660522  0.09807917382568121  1.0000
  O   O7        1.0  0.03278191352728754  0.17591913230717182  0.2744905399158597  1.0000
  O   O8        1.0  0.7968397985969204  0.15154436975717545  0.3833731517661363  1.0000
data_image77
_chemical_formula_structural       Cs4H4S4O8
_chemical_formula_sum              "Cs4 H4 S4 O8"
_cell_length_a       5.817371
_cell_length_b       6.411326074356613
_cell_length_c       12.038703921785974
_cell_angle_alpha    93.7344795294116
_cell_angle_beta     90.0
_cell_angle_gamma    116.97998093780937

_space_group_name_H-M_alt    "P 1"
_space_group_IT_number       1

loop_
  _space_group_symop_operation_xyz
  'x, y, z'

loop_
  _atom_site_type_symbol
  _atom_site_label
  _atom_site_symmetry_multiplicity
  _atom_site_fract_x
  _atom_site_fract_y
  _atom_site_fract_z
  _atom_site_occupancy
  Cs  Cs1       1.0  0.9019328355789185  0.4816277977079153  0.5902104303240776  1.0000
  Cs  Cs2       1.0  0.8180117532610893  0.4765316266566515  0.2108260807581246  1.0000
  Cs  Cs3       1.0  0.8437272142618895  0.3855124581605196  0.3660484394058585  1.0000
  Cs  Cs4       1.0  0.390968382358551  0.4933539256453514  0.6654282589443028  1.0000
  H   H1        1.0  0.39173372462391853  0.15410021506249905  0.7347991620772518  1.0000
  H   H2        1.0  0.5840572714805603  0.8331870622932911  0.6662919744849205  1.0000
  H   H3        1.0  0.5200887359678745  0.28099043667316437  0.2825530655682087  1.0000
  H   H4        1.0  0.008071497082710266  0.28034377098083496  0.016718324273824692  1.0000
  S   S1        1.0  0.1418224573135376  0.9080463647842407  0.996733982115984  1.0000
  S   S2        1.0  0.7844047695398331  0.22714301198720932  0.9038746966980398  1.0000
  S   S3        1.0  0.24187306314706802  0.12638600170612335  0.14675424620509148  1.0000
  S   S4        1.0  0.45227712392807007  0.1136065125465393  0.37244998663663864  1.0000
  O   O1        1.0  0.3838675459846854  0.11490583140403032  0.014358836458995938  1.0000
  O   O2        1.0  0.7361912466585636  0.7003189977258444  0.08104484109207988  1.0000
  O   O3        1.0  0.6979185361415148  0.029783710837364197  0.25278306254767813  1.0000
  O   O4        1.0  0.7794173485599458  0.848955592198763  0.430015220772475  1.0000
  O   O5        1.0  0.2111535845324397  0.9367667000624351  0.43915464566089213  1.0000
  O   O6        1.0  0.7470167353749275  0.1645387876778841  0.37708820402622223  1.0000
  O   O7        1.0  0.6986305878963321  0.5447379648685455  0.91175981098786  1.0000
  O   O8        1.0  0.8640900382015388  0.6355420888867229  0.9474060827633366  1.0000
data_image78
_chemical_formula_structural       Cs4H4S4O8
_chemical_formula_sum              "Cs4 H4 S4 O8"
_cell_length_a       5.817371
_cell_length_b       6.411326074356613
_cell_length_c       12.038703921785974
_cell_angle_alpha    93.7344795294116
_cell_angle_beta     90.0
_cell_angle_gamma    116.97998093780937

_space_group_name_H-M_alt    "P 1"
_space_group_IT_number       1

loop_
  _space_group_symop_operation_xyz
  'x, y, z'

loop_
  _atom_site_type_symbol
  _atom_site_label
  _atom_site_symmetry_multiplicity
  _atom_site_fract_x
  _atom_site_fract_y
  _atom_site_fract_z
  _atom_site_occupancy
  Cs  Cs1       1.0  0.6741360127925873  0.9043808039277792  0.7080663740634918  1.0000
  Cs  Cs2       1.0  0.462484247982502  0.6013100259006023  0.8881113887764513  1.0000
  Cs  Cs3       1.0  0.9677629061043262  0.5639087595045567  0.5733394157141447  1.0000
  Cs  Cs4       1.0  0.5809915885329247  0.3451481908559799  0.19234424270689487  1.0000
  H   H1        1.0  0.8833334371447563  0.8144204448908567  0.9412096004816703  1.0000
  H   H2        1.0  0.3546902537345886  0.07779256254434586  0.7365874908864498  1.0000
  H   H3        1.0  0.8681741952896118  0.8278836458921432  0.28639131039381027  1.0000
  H   H4        1.0  0.9132701754570007  0.16497868299484253  0.39059901610016823  1.0000
  S   S1        1.0  0.982300877571106  0.3835134506225586  0.20944584533572197  1.0000
  S   S2        1.0  0.7729017436504364  0.4589575231075287  0.11314707389101386  1.0000
  S   S3        1.0  0.335407018661499  0.14726419746875763  0.8439963199198246  1.0000
  S   S4        1.0  0.32823747396469116  0.5963858515024185  0.49149780720472336  1.0000
  O   O1        1.0  0.675822177901864  0.2586034322157502  0.06352828163653612  1.0000
  O   O2        1.0  0.7727397456765175  0.43683599028736353  0.48862336727324873  1.0000
  O   O3        1.0  0.7221304555423558  0.35473859682679176  0.05236790093476884  1.0000
  O   O4        1.0  0.23799690522719175  0.7242525491747074  0.32290848391130567  1.0000
  O   O5        1.0  0.283452813513577  0.4932135975686833  0.6373425470665097  1.0000
  O   O6        1.0  0.6025676392018795  0.28662110306322575  0.7716387007385492  1.0000
  O   O7        1.0  0.906195969262626  0.80691132042557  0.24104878399521112  1.0000
  O   O8        1.0  0.1767133770918008  0.6185797196812928  0.18652045400813222  1.0000
data_image79
_chemical_formula_structural       Cs4H4S4O8
_chemical_formula_sum              "Cs4 H4 S4 O8"
_cell_length_a       5.817371
_cell_length_b       6.411326074356613
_cell_length_c       12.038703921785974
_cell_angle_alpha    93.7344795294116
_cell_angle_beta     90.0
_cell_angle_gamma    116.97998093780937

_space_group_name_H-M_alt    "P 1"
_space_group_IT_number       1

loop_
  _space_group_symop_operation_xyz
  'x, y, z'

loop_
  _atom_site_type_symbol
  _atom_site_label
  _atom_site_symmetry_multiplicity
  _atom_site_fract_x
  _atom_site_fract_y
  _atom_site_fract_z
  _atom_site_occupancy
  Cs  Cs1       1.0  0.8924914300441742  0.7968253185972571  0.722004447132349  1.0000
  Cs  Cs2       1.0  0.17424125038087368  0.6202863343060017  0.4631194560788572  1.0000
  Cs  Cs3       1.0  0.2637869156897068  0.13815484568476677  0.39892559172585607  1.0000
  Cs  Cs4       1.0  0.8790481686592102  0.2531393337994814  0.5116749019362032  1.0000
  H   H1        1.0  0.12409455329179764  0.4524564929306507  0.6321550194406882  1.0000
  H   H2        1.0  0.9052520766854286  0.1641174890100956  0.8986169770359993  1.0000
  H   H3        1.0  0.3212105929851532  0.041715025901794434  0.9748525768518448  1.0000
  H   H4        1.0  0.7161548137664795  0.4947083294391632  0.7610149886459112  1.0000
  S   S1        1.0  0.6448298692703247  0.9237446188926697  0.5534605197608471  1.0000
  S   S2        1.0  0.0017013996839523315  0.17883439362049103  0.2603685175999999  1.0000
  S   S3        1.0  0.6890495121479034  0.6114261709153652  0.07879462838172913  1.0000
  S   S4        1.0  0.8094056844711304  0.3637832701206207  0.47457990795373917  1.0000
  O   O1        1.0  0.7789011662825942  0.3156084790825844  0.897274472983554  1.0000
  O   O2        1.0  0.3265238208696246  0.9967953925952315  0.23348369786981493  1.0000
  O   O3        1.0  0.5474026419688016  0.3942305324599147  0.9336623443523422  1.0000
  O   O4        1.0  0.36404282914008945  0.7991463402286172  0.444768963905517  1.0000
  O   O5        1.0  0.17946248431690037  0.13858498889021575  0.032735523069277406  1.0000
  O   O6        1.0  0.5958364941179752  0.9813016280531883  0.5073992474935949  1.0000
  O   O7        1.0  0.36922797025181353  0.9940240066498518  0.22832621727138758  1.0000
  O   O8        1.0  0.7745342893758789  0.5400611811783165  0.9165780941257253  1.0000
data_image80
_chemical_formula_structural       Cs4H4S4O8
_chemical_formula_sum              "Cs4 H4 S4 O8"
_cell_length_a       5.817371
_cell_length_b       6.411326074356613
_cell_length_c       12.038703921785974
_cell_angle_alpha    93.7344795294116
_cell_angle_beta     90.0
_cell_angle_gamma    116.97998093780937

_space_group_name_H-M_alt    "P 1"
_space_group_IT_number       1

loop_
  _space_group_symop_operation_xyz
  'x, y, z'

loop_
  _atom_site_type_symbol
  _atom_site_label
  _atom_site_symmetry_multiplicity
  _atom_site_fract_x
  _atom_site_fract_y
  _atom_site_fract_z
  _atom_site_occupancy
  Cs  Cs1       1.0  0.596309557557106  0.20640295883640647  0.9614944234490395  1.0000
  Cs  Cs2       1.0  0.8497611656785011  0.43956941831856966  0.03639216348528862  1.0000
  Cs  Cs3       1.0  0.6152820335701108  0.6814725287258625  0.6997156348079443  1.0000
  Cs  Cs4       1.0  0.20818347483873367  0.8577835951000452  0.16739813378080726  1.0000
  H   H1        1.0  0.6961567550897598  0.23079150915145874  0.3294888459495269  1.0000
  H   H2        1.0  0.07642807811498642  0.741458922624588  0.035411711782217026  1.0000
  H   H3        1.0  0.48548954725265503  0.8227677941322327  0.30933475494384766  1.0000
  H   H4        1.0  0.6878623813390732  0.6520207971334457  0.8980416171252728  1.0000
  S   S1        1.0  0.47170203924179077  0.31955644488334656  0.6192707419395447  1.0000
  S   S2        1.0  0.7881690412759781  0.8514058887958527  0.46378854662179947  1.0000
  S   S3        1.0  0.7156571298837662  0.7961466200649738  0.41499558836221695  1.0000
  S   S4        1.0  0.3217848241329193  0.7460911273956299  0.8617578595876694  1.0000
  O   O1        1.0  0.993639019317925  0.9583437880501151  0.7370698931626976  1.0000
  O   O2        1.0  0.8420179663226008  0.3466446530073881  0.7677198120509274  1.0000
  O   O3        1.0  0.04829331857035868  0.35286207869648933  0.4701530821621418  1.0000
  O   O4        1.0  0.7702712351456285  0.8709510767366737  0.9862564579234459  1.0000
  O   O5        1.0  0.909413667395711  0.1352197714149952  0.8041610193904489  1.0000
  O   O6        1.0  0.5716121308505535  0.5435663517564535  0.3970738761126995  1.0000
  O   O7        1.0  0.5158019969239831  0.5191020406782627  0.7000112333334982  1.0000
  O   O8        1.0  0.28031402331544086  0.44297885173000395  0.24778255494311452  1.0000
data_image81
_chemical_formula_structural       Cs4H4S4O8
_chemical_formula_sum              "Cs4 H4 S4 O8"
_cell_length_a       5.817371
_cell_length_b       6.411326074356613
_cell_length_c       12.038703921785974
_cell_angle_alpha    93.7344795294116
_cell_angle_beta     90.0
_cell_angle_gamma    116.97998093780937

_space_group_name_H-M_alt    "P 1"
_space_group_IT_number       1

loop_
  _space_group_symop_operation_xyz
  'x, y, z'

loop_
  _atom_site_type_symbol
  _atom_site_label
  _atom_site_symmetry_multiplicity
  _atom_site_fract_x
  _atom_site_fract_y
  _atom_site_fract_z
  _atom_site_occupancy
  Cs  Cs1       1.0  0.20335348695516586  0.5785243131686002  0.6235478296875954  1.0000
  Cs  Cs2       1.0  0.9631115756928921  0.4410869497805834  0.9654062655754387  1.0000
  Cs  Cs3       1.0  0.7764047170057893  0.3885708823800087  0.657364550512284  1.0000
  Cs  Cs4       1.0  0.2267025262117386  0.7739553805440664  0.25488094007596374  1.0000
  H   H1        1.0  0.6297247223556042  0.014428867027163506  0.6972164835751755  1.0000
  H   H2        1.0  0.7367176488041878  0.8365189768373966  0.007281679660081863  1.0000
  H   H3        1.0  0.0037046074867248535  0.37130841612815857  0.30513936281204224  1.0000
  H   H4        1.0  0.9140405505895615  0.00992274284362793  0.022891009226441383  1.0000
  S   S1        1.0  0.9992258548736572  0.856249988079071  0.28764091804623604  1.0000
  S   S2        1.0  0.002523362636566162  0.11800459027290344  0.019892890006303787  1.0000
  S   S3        1.0  0.43309684097766876  0.5828673131763935  0.34813855588436127  1.0000
  S   S4        1.0  0.026283562183380127  0.7942045480012894  0.6507830321788788  1.0000
  O   O1        1.0  0.24873424787074327  0.7134745363146067  0.5588911527302116  1.0000
  O   O2        1.0  0.3876657420769334  0.6689062202349305  0.5582796407979913  1.0000
  O   O3        1.0  0.6242388186510652  0.5915169566869736  0.6494301799684763  1.0000
  O   O4        1.0  0.9524902650737204  0.8597437180578709  0.44457816117210314  1.0000
  O   O5        1.0  0.33191032405011356  0.04042194923385978  0.05743869743309915  1.0000
  O   O6        1.0  0.800089169293642  0.9922231771051884  0.5013988018035889  1.0000
  O   O7        1.0  0.3788845716044307  0.838466283865273  0.3474573683924973  1.0000
  O   O8        1.0  0.44730010644343565  0.9319442592095584  0.5265122669516131  1.0000
data_image82
_chemical_formula_structural       Cs4H4S4O8
_chemical_formula_sum              "Cs4 H4 S4 O8"
_cell_length_a       5.817371
_cell_length_b       6.411326074356613
_cell_length_c       12.038703921785974
_cell_angle_alpha    93.7344795294116
_cell_angle_beta     90.0
_cell_angle_gamma    116.97998093780937

_space_group_name_H-M_alt    "P 1"
_space_group_IT_number       1

loop_
  _space_group_symop_operation_xyz
  'x, y, z'

loop_
  _atom_site_type_symbol
  _atom_site_label
  _atom_site_symmetry_multiplicity
  _atom_site_fract_x
  _atom_site_fract_y
  _atom_site_fract_z
  _atom_site_occupancy
  Cs  Cs1       1.0  0.8455776199698448  0.11742239398881793  0.8479940444231033  1.0000
  Cs  Cs2       1.0  0.15655849687755108  0.9143542004749179  0.2747438456863165  1.0000
  Cs  Cs3       1.0  0.06765262968838215  0.8287364020943642  0.16842148243449628  1.0000
  Cs  Cs4       1.0  0.45660729706287384  0.5468770023435354  0.10041258484125137  1.0000
  H   H1        1.0  0.9400687031447887  0.4695596117526293  0.1371728357480606  1.0000
  H   H2        1.0  0.5471793636679649  0.7711414359509945  0.8641178421676159  1.0000
  H   H3        1.0  0.43481628596782684  0.4835132956504822  0.9415035843849182  1.0000
  H   H4        1.0  0.8768572211265564  0.8324290066957474  0.2934499476104975  1.0000
  S   S1        1.0  0.12421941757202148  0.5749472081661224  0.009685859084129333  1.0000
  S   S2        1.0  0.36151687800884247  0.9525605887174606  0.8354086205363274  1.0000
  S   S3        1.0  0.49184392392635345  0.08198998123407364  0.014569390565156937  1.0000
  S   S4        1.0  0.5365113317966461  0.6770981848239899  0.6623679623007774  1.0000
  O   O1        1.0  0.6911663208156824  0.4955249894410372  0.1012179444078356  1.0000
  O   O2        1.0  0.5839967047795653  0.7801306387409568  0.37071352428756654  1.0000
  O   O3        1.0  0.11943845148198307  0.9626297578215599  0.6113632041960955  1.0000
  O   O4        1.0  0.20774811651790515  0.8128765132278204  0.4118647411232814  1.0000
  O   O5        1.0  0.902313188649714  0.7489255897817202  0.13210525759495795  1.0000
  O   O6        1.0  0.5967439264059067  0.48158906772732735  0.026406994555145502  1.0000
  O   O7        1.0  0.7664722604677081  0.12960575055330992  0.21775530296145007  1.0000
  O   O8        1.0  0.26630192587617785  0.33963008341379464  0.5967700890032575  1.0000
data_image83
_chemical_formula_structural       Cs4H4S4O8
_chemical_formula_sum              "Cs4 H4 S4 O8"
_cell_length_a       5.817371
_cell_length_b       6.411326074356613
_cell_length_c       12.038703921785974
_cell_angle_alpha    93.7344795294116
_cell_angle_beta     90.0
_cell_angle_gamma    116.97998093780937

_space_group_name_H-M_alt    "P 1"
_space_group_IT_number       1

loop_
  _space_group_symop_operation_xyz
  'x, y, z'

loop_
  _atom_site_type_symbol
  _atom_site_label
  _atom_site_symmetry_multiplicity
  _atom_site_fract_x
  _atom_site_fract_y
  _atom_site_fract_z
  _atom_site_occupancy
  Cs  Cs1       1.0  0.02979576587677002  0.601941846543923  0.16532272100448608  1.0000
  Cs  Cs2       1.0  0.17191348038613796  0.977268529124558  0.0009429100900888443  1.0000
  Cs  Cs3       1.0  0.8376871161162853  0.5126409772783518  0.29616111097857356  1.0000
  Cs  Cs4       1.0  0.9926466271281242  0.27244449593126774  0.9959394857287407  1.0000
  H   H1        1.0  0.01831093803048134  0.34896332398056984  0.7311045593523886  1.0000
  H   H2        1.0  0.9331826195120811  0.009604208171367645  0.9279062114655972  1.0000
  H   H3        1.0  0.08003802597522736  0.6883729994297028  0.28054478764533997  1.0000
  H   H4        1.0  0.3834792375564575  0.8404857516288757  0.4074702635407448  1.0000
  S   S1        1.0  0.32043272256851196  0.12605342268943787  0.04816976934671402  1.0000
  S   S2        1.0  0.7719083279371262  0.128912553191185  0.49046191200613976  1.0000
  S   S3        1.0  0.11377159506082535  0.7301995605230331  0.36048415675759315  1.0000
  S   S4        1.0  0.2930833697319031  0.7697986364364624  0.6397529616951942  1.0000
  O   O1        1.0  0.8151308512315154  0.7365231206640601  0.33158500236459076  1.0000
  O   O2        1.0  0.31213425658643246  0.13058410678058863  0.9521276069572195  1.0000
  O   O3        1.0  0.5773671502247453  0.7089353427290916  0.38079397566616535  1.0000
  O   O4        1.0  0.6411267895600758  0.3438109131529927  0.721993776911404  1.0000
  O   O5        1.0  0.5928922516759485  0.8808075682027265  0.921650025062263  1.0000
  O   O6        1.0  0.04840358719229698  0.7237012404948473  0.6076843561604619  1.0000
  O   O7        1.0  0.13216226734220982  0.3186894718091935  0.07223049079766497  1.0000
  O   O8        1.0  0.3071260768629145  0.5279164768289775  0.4222183207748458  1.0000
data_image84
_chemical_formula_structural       Cs4H4S4O8
_chemical_formula_sum              "Cs4 H4 S4 O8"
_cell_length_a       5.817371
_cell_length_b       6.411326074356613
_cell_length_c       12.038703921785974
_cell_angle_alpha    93.7344795294116
_cell_angle_beta     90.0
_cell_angle_gamma    116.97998093780937

_space_group_name_H-M_alt    "P 1"
_space_group_IT_number       1

loop_
  _space_group_symop_operation_xyz
  'x, y, z'

loop_
  _atom_site_type_symbol
  _atom_site_label
  _atom_site_symmetry_multiplicity
  _atom_site_fract_x
  _atom_site_fract_y
  _atom_site_fract_z
  _atom_site_occupancy
  Cs  Cs1       1.0  0.41570039838552475  0.4401467517018318  0.07294118404388428  1.0000
  Cs  Cs2       1.0  0.7667002119123936  0.7463948931545019  0.9009761242195964  1.0000
  Cs  Cs3       1.0  0.0526660056784749  0.4638307970017195  0.4558230694383383  1.0000
  Cs  Cs4       1.0  0.7337545156478882  0.9955982323735952  0.5241255513392389  1.0000
  H   H1        1.0  0.4297131113708019  0.22772105783224106  0.8017628630041145  1.0000
  H   H2        1.0  0.11224538832902908  0.29488541930913925  0.620805885642767  1.0000
  H   H3        1.0  0.6550511717796326  0.46077537536621094  0.3249001204967499  1.0000
  H   H4        1.0  0.8177294731140137  0.19509057700634003  0.041938720270991325  1.0000
  S   S1        1.0  0.08614110946655273  0.15574967861175537  0.693938072770834  1.0000
  S   S2        1.0  0.8657536804676056  0.5435887426137924  0.9619769491255283  1.0000
  S   S3        1.0  0.047266505658626556  0.9121230076998472  0.4738716036081314  1.0000
  S   S4        1.0  0.044713303446769714  0.6217053532600403  0.20666636526584625  1.0000
  O   O1        1.0  0.2510452829301357  0.7189764911308885  0.7699159292969853  1.0000
  O   O2        1.0  0.11227288004010916  0.6811124505475163  0.3295518180821091  1.0000
  O   O3        1.0  0.10116366669535637  0.8211390674114227  0.04202449321746826  1.0000
  O   O4        1.0  0.4811471752473153  0.7829329730011523  0.4292216951143928  1.0000
  O   O5        1.0  0.9498635330237448  0.6870122571126558  0.6946058487519622  1.0000
  O   O6        1.0  0.7350780963897705  0.5766536723822355  0.5544306864030659  1.0000
  O   O7        1.0  0.26766675617545843  0.5015447135083377  0.24053958803415298  1.0000
  O   O8        1.0  0.5800837985589169  0.6937731592915952  0.1528470878256485  1.0000
data_image85
_chemical_formula_structural       Cs4H4S4O8
_chemical_formula_sum              "Cs4 H4 S4 O8"
_cell_length_a       5.817371
_cell_length_b       6.411326074356613
_cell_length_c       12.038703921785974
_cell_angle_alpha    93.7344795294116
_cell_angle_beta     90.0
_cell_angle_gamma    116.97998093780937

_space_group_name_H-M_alt    "P 1"
_space_group_IT_number       1

loop_
  _space_group_symop_operation_xyz
  'x, y, z'

loop_
  _atom_site_type_symbol
  _atom_site_label
  _atom_site_symmetry_multiplicity
  _atom_site_fract_x
  _atom_site_fract_y
  _atom_site_fract_z
  _atom_site_occupancy
  Cs  Cs1       1.0  0.2850906699895859  0.44034347869455814  0.9934288393706083  1.0000
  Cs  Cs2       1.0  0.8520743604749441  0.05028786230832338  0.8406159961596131  1.0000
  Cs  Cs3       1.0  0.7338619455695152  0.9816596880555153  0.12204561638645828  1.0000
  Cs  Cs4       1.0  0.4460155814886093  0.9847089108079672  0.42524474882520735  1.0000
  H   H1        1.0  0.44960444420576096  0.6175230909138918  0.5580688384361565  1.0000
  H   H2        1.0  0.19381681084632874  0.3247804492712021  0.6459532901644707  1.0000
  H   H3        1.0  0.7325370758771896  0.621857613325119  0.5739340782165527  1.0000
  H   H4        1.0  0.49254269897937775  0.37996892631053925  0.5059653408825397  1.0000
  S   S1        1.0  0.99857097864151  0.6517282426357269  0.9973425455391407  1.0000
  S   S2        1.0  0.8419703245162964  0.18625380098819733  0.22656462714076042  1.0000
  S   S3        1.0  0.4015844464302063  0.40038761869072914  0.1104932613670826  1.0000
  S   S4        1.0  0.8100588321685791  0.8178488910198212  0.8845942988991737  1.0000
  O   O1        1.0  0.991895753890276  0.41912158764898777  0.8410805140156299  1.0000
  O   O2        1.0  0.8104664031416178  0.9563731839880347  0.1227443948155269  1.0000
  O   O3        1.0  0.5295351480599493  0.24278699606657028  0.3998021576553583  1.0000
  O   O4        1.0  0.40468750993022695  0.1717211299110204  0.45539555192226544  1.0000
  O   O5        1.0  0.629119414021261  0.903813038719818  0.40990390977822244  1.0000
  O   O6        1.0  0.3200341910123825  0.5329822618514299  0.9110837145708501  1.0000
  O   O7        1.0  0.972893157042563  0.8673107451759279  0.4948325256118551  1.0000
  O   O8        1.0  0.27860607230104506  0.06459720549173653  0.5390069255372509  1.0000
data_image86
_chemical_formula_structural       Cs4H4S4O8
_chemical_formula_sum              "Cs4 H4 S4 O8"
_cell_length_a       5.817371
_cell_length_b       6.411326074356613
_cell_length_c       12.038703921785974
_cell_angle_alpha    93.7344795294116
_cell_angle_beta     90.0
_cell_angle_gamma    116.97998093780937

_space_group_name_H-M_alt    "P 1"
_space_group_IT_number       1

loop_
  _space_group_symop_operation_xyz
  'x, y, z'

loop_
  _atom_site_type_symbol
  _atom_site_label
  _atom_site_symmetry_multiplicity
  _atom_site_fract_x
  _atom_site_fract_y
  _atom_site_fract_z
  _atom_site_occupancy
  Cs  Cs1       1.0  0.00852648913860321  0.6827748157083988  0.3003276791423559  1.0000
  Cs  Cs2       1.0  0.32895224913954735  0.13881649170070887  0.18444855930283666  1.0000
  Cs  Cs3       1.0  0.9740714365616441  0.5706296786665916  0.2859217954101041  1.0000
  Cs  Cs4       1.0  0.5677620768547058  0.09813962876796722  0.9810595675371587  1.0000
  H   H1        1.0  0.017561573535203934  0.45408446714282036  0.4186472607543692  1.0000
  H   H2        1.0  0.8506750166416168  0.42506807297468185  0.5746929682791233  1.0000
  H   H3        1.0  0.7690275758504868  0.9808230400085449  0.09861639142036438  1.0000
  H   H4        1.0  0.6055620014667511  0.11016441881656647  0.44431968219578266  1.0000
  S   S1        1.0  0.34344708919525146  0.49473837018013  0.7777696996927261  1.0000
  S   S2        1.0  0.11434732377529144  0.7507065534591675  0.874491311609745  1.0000
  S   S3        1.0  0.043278783559799194  0.13361835479736328  0.803869754076004  1.0000
  S   S4        1.0  0.980284795165062  0.6526613384485245  0.6240358725190163  1.0000
  O   O1        1.0  0.22826595697551966  0.8241770919412374  0.5195629512891173  1.0000
  O   O2        1.0  0.2986818114295602  0.4795923139899969  0.5146708284737542  1.0000
  O   O3        1.0  0.669020610395819  0.5691881701350212  0.32632521726191044  1.0000
  O   O4        1.0  0.10942431364674121  0.8781134397722781  0.7095839598914608  1.0000
  O   O5        1.0  0.03460042364895344  0.4114297059131786  0.625853396486491  1.0000
  O   O6        1.0  0.678531177341938  0.5523872617632151  0.38587172981351614  1.0000
  O   O7        1.0  0.8973049456253648  0.49626630591228604  0.23586170398630202  1.0000
  O   O8        1.0  0.7233974179252982  0.6473878161050379  0.5893961967667565  1.0000
data_image87
_chemical_formula_structural       Cs4H4S4O8
_chemical_formula_sum              "Cs4 H4 S4 O8"
_cell_length_a       5.817371
_cell_length_b       6.411326074356613
_cell_length_c       12.038703921785974
_cell_angle_alpha    93.7344795294116
_cell_angle_beta     90.0
_cell_angle_gamma    116.97998093780937

_space_group_name_H-M_alt    "P 1"
_space_group_IT_number       1

loop_
  _space_group_symop_operation_xyz
  'x, y, z'

loop_
  _atom_site_type_symbol
  _atom_site_label
  _atom_site_symmetry_multiplicity
  _atom_site_fract_x
  _atom_site_fract_y
  _atom_site_fract_z
  _atom_site_occupancy
  Cs  Cs1       1.0  0.3444400727748871  0.48130705393850803  0.6507751662284136  1.0000
  Cs  Cs2       1.0  0.9247479569166899  0.25220058113336563  0.6848398922011256  1.0000
  Cs  Cs3       1.0  0.2581204017624259  0.8876917343586683  0.5482270285720006  1.0000
  Cs  Cs4       1.0  0.6096333414316177  0.3931509219110012  0.9805183904245496  1.0000
  H   H1        1.0  0.010328013449907303  0.9162732381373644  0.6320429033366963  1.0000
  H   H2        1.0  0.06850074231624603  0.8456694409251213  0.6497734822332859  1.0000
  H   H3        1.0  0.8897632211446762  0.5533511340618134  0.2317436933517456  1.0000
  H   H4        1.0  0.942552775144577  0.43410973250865936  0.2204329576343298  1.0000
  S   S1        1.0  0.3788226842880249  0.6203928887844086  0.4737943857908249  1.0000
  S   S2        1.0  0.6730178743600845  0.5441316217184067  0.44337841495871544  1.0000
  S   S3        1.0  0.43892399966716766  0.9297655150294304  0.03355134651064873  1.0000
  S   S4        1.0  0.7327210605144501  0.7351677715778351  0.892416350543499  1.0000
  O   O1        1.0  0.974568179808557  0.6106980126351118  0.07489393674768507  1.0000
  O   O2        1.0  0.9711588192731142  0.6595294317230582  0.06114793533924967  1.0000
  O   O3        1.0  0.29228523653000593  0.8074168786406517  0.30349626764655113  1.0000
  O   O4        1.0  0.09008163935504854  0.4355380218476057  0.4512685702065937  1.0000
  O   O5        1.0  0.6237829948076978  0.8319387135561556  0.15454714186489582  1.0000
  O   O6        1.0  0.8645368441939354  0.00010552071034908295  0.3073766133747995  1.0000
  O   O7        1.0  0.5097805373370647  0.058339562732726336  0.3268359542125836  1.0000
  O   O8        1.0  0.701339528139215  0.6240966632030904  0.6439668727107346  1.0000
data_image88
_chemical_formula_structural       Cs4H4S4O8
_chemical_formula_sum              "Cs4 H4 S4 O8"
_cell_length_a       5.817371
_cell_length_b       6.411326074356613
_cell_length_c       12.038703921785974
_cell_angle_alpha    93.7344795294116
_cell_angle_beta     90.0
_cell_angle_gamma    116.97998093780937

_space_group_name_H-M_alt    "P 1"
_space_group_IT_number       1

loop_
  _space_group_symop_operation_xyz
  'x, y, z'

loop_
  _atom_site_type_symbol
  _atom_site_label
  _atom_site_symmetry_multiplicity
  _atom_site_fract_x
  _atom_site_fract_y
  _atom_site_fract_z
  _atom_site_occupancy
  Cs  Cs1       1.0  0.038500141352415085  0.5689346008002758  0.9520033542066813  1.0000
  Cs  Cs2       1.0  0.5917595531791449  0.9506722874939442  0.446633817628026  1.0000
  Cs  Cs3       1.0  0.36371375480666757  0.47584668919444084  0.9646163816796616  1.0000
  Cs  Cs4       1.0  0.5358974561095238  0.7541545908898115  0.8794608805328608  1.0000
  H   H1        1.0  0.6779301911592484  0.7033318150788546  0.4203735758783296  1.0000
  H   H2        1.0  0.6081187725067139  0.802254244685173  0.1253561731427908  1.0000
  H   H3        1.0  0.05419735610485077  0.36064445972442627  0.3481423556804657  1.0000
  H   H4        1.0  0.008951038122177124  0.1369699388742447  0.13294966146349907  1.0000
  S   S1        1.0  0.631298840045929  0.0032005608081817627  0.3131224438548088  1.0000
  S   S2        1.0  0.07656882703304291  0.5443382263183594  0.913346640765667  1.0000
  S   S3        1.0  0.8776333332061768  0.968744732439518  0.4834829568862915  1.0000
  S   S4        1.0  0.8071853667497635  0.2119544893503189  0.7924102246761322  1.0000
  O   O1        1.0  0.41429925709962845  0.8275968143716455  0.954039909876883  1.0000
  O   O2        1.0  0.6839729165658355  0.3679186496883631  0.10705444938503206  1.0000
  O   O3        1.0  0.016461621271446347  0.721170499920845  0.621904980391264  1.0000
  O   O4        1.0  0.5816588727757335  0.6081461035646498  0.7549282014952041  1.0000
  O   O5        1.0  0.34732464782427996  0.25779574061743915  0.6549468354787678  1.0000
  O   O6        1.0  0.5358645133674145  0.5608562510460615  0.38330214796587825  1.0000
  O   O7        1.0  0.45087495259940624  0.3993203772697598  0.0331632848829031  1.0000
  O   O8        1.0  0.4609158370876685  0.5814104095334187  0.30370903853327036  1.0000
data_image89
_chemical_formula_structural       Cs4H4S4O8
_chemical_formula_sum              "Cs4 H4 S4 O8"
_cell_length_a       5.817371
_cell_length_b       6.411326074356613
_cell_length_c       12.038703921785974
_cell_angle_alpha    93.7344795294116
_cell_angle_beta     90.0
_cell_angle_gamma    116.97998093780937

_space_group_name_H-M_alt    "P 1"
_space_group_IT_number       1

loop_
  _space_group_symop_operation_xyz
  'x, y, z'

loop_
  _atom_site_type_symbol
  _atom_site_label
  _atom_site_symmetry_multiplicity
  _atom_site_fract_x
  _atom_site_fract_y
  _atom_site_fract_z
  _atom_site_occupancy
  Cs  Cs1       1.0  0.4194433316588402  0.7296904660761356  0.726401848718524  1.0000
  Cs  Cs2       1.0  0.6723172552883625  0.42457187734544277  0.5022622784599662  1.0000
  Cs  Cs3       1.0  0.4195970823056996  0.7004224210977554  0.44244806724600494  1.0000
  Cs  Cs4       1.0  0.39104367047548294  0.05313148349523544  0.46366254473105073  1.0000
  H   H1        1.0  0.8127129338681698  0.9260893035680056  0.2749923710944131  1.0000
  H   H2        1.0  0.6631720066070557  0.963352881371975  0.8304292559623718  1.0000
  H   H3        1.0  0.10181938111782074  0.18562081456184387  0.5512146055698395  1.0000
  H   H4        1.0  0.4348354637622833  0.33180616796016693  0.49599384889006615  1.0000
  S   S1        1.0  0.2850092649459839  0.18706494569778442  0.4495587460696697  1.0000
  S   S2        1.0  0.3757828325033188  0.20411725342273712  0.5070834085345268  1.0000
  S   S3        1.0  0.9872457832098007  0.8374943733215332  0.3977867588400841  1.0000
  S   S4        1.0  0.7926380038261414  0.03393526375293732  0.2925536260008812  1.0000
  O   O1        1.0  0.199114047922194  0.83844771143049  0.5729117966257036  1.0000
  O   O2        1.0  0.5948201026767492  0.44114454090595245  0.7960965933743864  1.0000
  O   O3        1.0  0.7991996207274497  0.890974298119545  0.7212778925895691  1.0000
  O   O4        1.0  0.93232581904158  0.3471529569942504  0.43687855754978955  1.0000
  O   O5        1.0  0.982395957573317  0.3359049786813557  0.6291478595230728  1.0000
  O   O6        1.0  0.5296297967433929  0.8170488346368074  0.3207584754563868  1.0000
  O   O7        1.0  0.8872129544615746  0.7623809345532209  0.7757155736908317  1.0000
  O   O8        1.0  0.9440991488518193  0.5039872367633507  0.1551780889276415  1.0000
data_image90
_chemical_formula_structural       Cs4H4S4O8
_chemical_formula_sum              "Cs4 H4 S4 O8"
_cell_length_a       5.817371
_cell_length_b       6.411326074356613
_cell_length_c       12.038703921785974
_cell_angle_alpha    93.7344795294116
_cell_angle_beta     90.0
_cell_angle_gamma    116.97998093780937

_space_group_name_H-M_alt    "P 1"
_space_group_IT_number       1

loop_
  _space_group_symop_operation_xyz
  'x, y, z'

loop_
  _atom_site_type_symbol
  _atom_site_label
  _atom_site_symmetry_multiplicity
  _atom_site_fract_x
  _atom_site_fract_y
  _atom_site_fract_z
  _atom_site_occupancy
  Cs  Cs1       1.0  0.5324524939060211  0.9541733972728252  0.19312314689159393  1.0000
  Cs  Cs2       1.0  0.6477502174675465  0.6021993346512318  0.30795002495869994  1.0000
  Cs  Cs3       1.0  0.16973613668233156  0.38323341868817806  0.991331409313716  1.0000
  Cs  Cs4       1.0  0.6764653772115707  0.47560639306902885  0.31573926331475377  1.0000
  H   H1        1.0  0.3538331910967827  0.985394200310111  0.6252272790297866  1.0000
  H   H2        1.0  0.9176618754863739  0.8816101178526878  0.7378120962530375  1.0000
  H   H3        1.0  0.4292919635772705  0.38437697291374207  0.3265911042690277  1.0000
  H   H4        1.0  0.9677405655384064  0.2501881420612335  0.08469142019748688  1.0000
  S   S1        1.0  0.8789734840393066  0.8765064477920532  0.8022541888058186  1.0000
  S   S2        1.0  0.6678534746170044  0.7988412529230118  0.9887046255171299  1.0000
  S   S3        1.0  0.8779711723327637  0.7661947309970856  0.8207326494157314  1.0000
  S   S4        1.0  0.4393272399902344  0.5220337510108948  0.050510428845882416  1.0000
  O   O1        1.0  0.013261084444820881  0.41290885023772717  0.24365709885023534  1.0000
  O   O2        1.0  0.03810257837176323  0.9900175854563713  0.25588369905017316  1.0000
  O   O3        1.0  0.1087070656940341  0.4255286008119583  0.10981487110257149  1.0000
  O   O4        1.0  0.3738010027445853  0.5544782346114516  0.9351604897965444  1.0000
  O   O5        1.0  0.4141069329343736  0.24954879679717124  0.3334826997015625  1.0000
  O   O6        1.0  0.05009476840496063  0.08006336726248264  0.2193834288045764  1.0000
  O   O7        1.0  0.5191726870834827  0.08029775973409414  0.8453637624625117  1.0000
  O   O8        1.0  0.1415235373424366  0.5295333231333643  0.23968064723885618  1.0000
data_image91
_chemical_formula_structural       Cs4H4S4O8
_chemical_formula_sum              "Cs4 H4 S4 O8"
_cell_length_a       5.817371
_cell_length_b       6.411326074356613
_cell_length_c       12.038703921785974
_cell_angle_alpha    93.7344795294116
_cell_angle_beta     90.0
_cell_angle_gamma    116.97998093780937

_space_group_name_H-M_alt    "P 1"
_space_group_IT_number       1

loop_
  _space_group_symop_operation_xyz
  'x, y, z'

loop_
  _atom_site_type_symbol
  _atom_site_label
  _atom_site_symmetry_multiplicity
  _atom_site_fract_x
  _atom_site_fract_y
  _atom_site_fract_z
  _atom_site_occupancy
  Cs  Cs1       1.0  0.02565108612179756  0.18197902850806713  0.58873519487679  1.0000
  Cs  Cs2       1.0  0.7134052570909262  0.3621563846245408  0.34221814526245  1.0000
  Cs  Cs3       1.0  0.47230245638638735  0.46151273511350155  0.8240343150682747  1.0000
  Cs  Cs4       1.0  0.5655957385897636  0.07885560393333435  0.19778775377199054  1.0000
  H   H1        1.0  0.19358523190021515  0.4093236066401005  0.4273713811999187  1.0000
  H   H2        1.0  0.4124496281147003  0.37741895020008087  0.042630163952708244  1.0000
  H   H3        1.0  0.21600544452667236  0.7561847865581512  0.6776115894317627  1.0000
  H   H4        1.0  0.08494225144386292  0.27504561841487885  0.012366827577352524  1.0000
  S   S1        1.0  0.9728035926818848  0.9840496778488159  0.012527331709861755  1.0000
  S   S2        1.0  0.24836421012878418  0.6117634177207947  0.4274339973926544  1.0000
  S   S3        1.0  0.4643145650625229  0.4810490682721138  0.4792903959751129  1.0000
  S   S4        1.0  0.2575174421072006  0.00034572184085845947  0.4781902879476547  1.0000
  O   O1        1.0  0.5479438714683056  0.08524056430906057  0.5494381648022681  1.0000
  O   O2        1.0  0.9544889992102981  0.981320733204484  0.8251212033210322  1.0000
  O   O3        1.0  0.5840874903369695  0.13168879598379135  0.23751565627753735  1.0000
  O   O4        1.0  0.3063498851843178  0.44327670335769653  0.44634579570265487  1.0000
  O   O5        1.0  0.4706194594036788  0.5225980435498059  0.5359844628255814  1.0000
  O   O6        1.0  0.6675343811511993  0.11443505994975567  0.3879369986243546  1.0000
  O   O7        1.0  0.5298865968361497  0.5943897292017937  0.3725371555192396  1.0000
  O   O8        1.0  0.07808266393840313  0.6043231106596068  0.8354453642386943  1.0000
data_image92
_chemical_formula_structural       Cs4H4S4O8
_chemical_formula_sum              "Cs4 H4 S4 O8"
_cell_length_a       5.817371
_cell_length_b       6.411326074356613
_cell_length_c       12.038703921785974
_cell_angle_alpha    93.7344795294116
_cell_angle_beta     90.0
_cell_angle_gamma    116.97998093780937

_space_group_name_H-M_alt    "P 1"
_space_group_IT_number       1

loop_
  _space_group_symop_operation_xyz
  'x, y, z'

loop_
  _atom_site_type_symbol
  _atom_site_label
  _atom_site_symmetry_multiplicity
  _atom_site_fract_x
  _atom_site_fract_y
  _atom_site_fract_z
  _atom_site_occupancy
  Cs  Cs1       1.0  0.4283789061009884  0.5259767826646566  0.945177098736167  1.0000
  Cs  Cs2       1.0  0.07862361706793308  0.3311622114852071  0.6076825959607959  1.0000
  Cs  Cs3       1.0  0.17858389718458056  0.8397019486874342  0.8673497156705707  1.0000
  Cs  Cs4       1.0  0.5503455549478531  0.16443536803126335  0.7308903271332383  1.0000
  H   H1        1.0  0.7454320043325424  0.4975730534642935  0.11898453684989363  1.0000
  H   H2        1.0  0.8928155452013016  0.019629664719104767  0.4494308568537235  1.0000
  H   H3        1.0  0.42129650712013245  0.8328569233417511  0.3970637023448944  1.0000
  H   H4        1.0  0.7006780207157135  0.8487187474966049  0.03875521570444107  1.0000
  S   S1        1.0  0.08023607730865479  0.8595781326293945  0.3640819378197193  1.0000
  S   S2        1.0  0.5176847279071808  0.3193318396806717  0.5088309161365032  1.0000
  S   S3        1.0  0.565351128578186  0.18832995370030403  0.6432558074593544  1.0000
  S   S4        1.0  0.4611128270626068  0.7593235522508621  0.33274976909160614  1.0000
  O   O1        1.0  0.3604724733158946  0.4085481120273471  0.5483005300629884  1.0000
  O   O2        1.0  0.5241371719166636  0.13823657110333443  0.48417781572788954  1.0000
  O   O3        1.0  0.04857835965231061  0.7697081938385963  0.17426839098334312  1.0000
  O   O4        1.0  0.62555644614622  0.9823322063311934  0.3243557126552332  1.0000
  O   O5        1.0  0.8347207772894762  0.3470152881927788  0.5245038364082575  1.0000
  O   O6        1.0  0.7774748876690865  0.672502227127552  0.9423276018351316  1.0000
  O   O7        1.0  0.777532197535038  0.49239609693177044  0.31600145145785064  1.0000
  O   O8        1.0  0.7810576666379347  0.5111270629568025  0.10934334894409403  1.0000
data_image93
_chemical_formula_structural       Cs4H4S4O8
_chemical_formula_sum              "Cs4 H4 S4 O8"
_cell_length_a       5.817371
_cell_length_b       6.411326074356613
_cell_length_c       12.038703921785974
_cell_angle_alpha    93.7344795294116
_cell_angle_beta     90.0
_cell_angle_gamma    116.97998093780937

_space_group_name_H-M_alt    "P 1"
_space_group_IT_number       1

loop_
  _space_group_symop_operation_xyz
  'x, y, z'

loop_
  _atom_site_type_symbol
  _atom_site_label
  _atom_site_symmetry_multiplicity
  _atom_site_fract_x
  _atom_site_fract_y
  _atom_site_fract_z
  _atom_site_occupancy
  Cs  Cs1       1.0  0.9068537764251232  0.06387119181454182  0.8446370717138052  1.0000
  Cs  Cs2       1.0  0.3656483069062233  0.5710638510063291  0.9465679451823235  1.0000
  Cs  Cs3       1.0  0.13667397433891892  0.7306433655321598  0.7803237524349242  1.0000
  Cs  Cs4       1.0  0.1448027640581131  0.05805148370563984  0.9954138761386275  1.0000
  H   H1        1.0  0.3594656940549612  0.731216149404645  0.4766612458333839  1.0000
  H   H2        1.0  0.35896608233451843  0.45252685993909836  0.6258465126156807  1.0000
  H   H3        1.0  0.6959076523780823  0.8583814799785614  0.3569907248020172  1.0000
  H   H4        1.0  0.24292582273483276  0.7131137251853943  0.6991737447679043  1.0000
  S   S1        1.0  0.9162268042564392  0.5832582712173462  0.00041361525654792786  1.0000
  S   S2        1.0  0.3772881180047989  0.3719851076602936  0.9265668094158173  1.0000
  S   S3        1.0  0.36296534538269043  0.7467147447168827  0.6547184735536575  1.0000
  S   S4        1.0  0.7512740194797516  0.3684399724006653  0.7464243769645691  1.0000
  O   O1        1.0  0.09066932275891304  0.5684050833806396  0.4446259818505496  1.0000
  O   O2        1.0  0.49936788994818926  0.2042442997917533  0.33207079814746976  1.0000
  O   O3        1.0  0.2719263378530741  0.05564022809267044  0.6509239878505468  1.0000
  O   O4        1.0  0.8780411493498832  0.9435564843006432  0.7949971698981244  1.0000
  O   O5        1.0  0.7726696335012093  0.9417234841967002  0.05164515576325357  1.0000
  O   O6        1.0  0.08293448016047478  0.31769667752087116  0.13377273082733154  1.0000
  O   O7        1.0  0.20942305214703083  0.22103668027557433  0.017954599810764194  1.0000
  O   O8        1.0  0.3677971694851294  0.6722801837604493  0.019976581912487745  1.0000
data_image94
_chemical_formula_structural       Cs4H4S4O8
_chemical_formula_sum              "Cs4 H4 S4 O8"
_cell_length_a       5.817371
_cell_length_b       6.411326074356613
_cell_length_c       12.038703921785974
_cell_angle_alpha    93.7344795294116
_cell_angle_beta     90.0
_cell_angle_gamma    116.97998093780937

_space_group_name_H-M_alt    "P 1"
_space_group_IT_number       1

loop_
  _space_group_symop_operation_xyz
  'x, y, z'

loop_
  _atom_site_type_symbol
  _atom_site_label
  _atom_site_symmetry_multiplicity
  _atom_site_fract_x
  _atom_site_fract_y
  _atom_site_fract_z
  _atom_site_occupancy
  Cs  Cs1       1.0  0.019002635031938553  0.7047792803496122  0.48238171078264713  1.0000
  Cs  Cs2       1.0  0.4576083645224571  0.4019647929817438  0.7338293511420488  1.0000
  Cs  Cs3       1.0  0.8840450835414231  0.21610712818801403  0.2506295741768554  1.0000
  Cs  Cs4       1.0  0.82852403819561  0.83395741507411  0.6748431115411222  1.0000
  H   H1        1.0  0.6666721049696207  0.8724140813574195  0.48291948321275413  1.0000
  H   H2        1.0  0.33447494357824326  0.18741443753242493  0.4978638980537653  1.0000
  H   H3        1.0  0.7125538885593414  0.32610586285591125  0.6593202948570251  1.0000
  H   H4        1.0  0.8233925700187683  0.683095708489418  0.18781618401408195  1.0000
  S   S1        1.0  0.5308509469032288  0.8907945156097412  0.6407279781997204  1.0000
  S   S2        1.0  0.41403286159038544  0.5190690755844116  0.4496275521814823  1.0000
  S   S3        1.0  0.23876123130321503  0.9323895424604416  0.3014693893492222  1.0000
  S   S4        1.0  0.29821665585041046  0.22871233522891998  0.5782724767923355  1.0000
  O   O1        1.0  0.22326819226145744  0.8245426379144192  0.010907750809565187  1.0000
  O   O2        1.0  0.13936848659068346  0.4975802209228277  0.508234464447014  1.0000
  O   O3        1.0  0.4035297427326441  0.13552501052618027  0.9963936880230904  1.0000
  O   O4        1.0  0.009773988276720047  0.7308675516396761  0.9723950377083384  1.0000
  O   O5        1.0  0.3943452487583272  0.8246219744905829  0.49935112916864455  1.0000
  O   O6        1.0  0.41257599368691444  0.74972471781075  0.06205852795392275  1.0000
  O   O7        1.0  0.6606252435594797  0.3868910730816424  0.19785623694770038  1.0000
  O   O8        1.0  0.7446404669899493  0.3479554963996634  0.10139555158093572  1.0000
data_image95
_chemical_formula_structural       Cs4H4S4O8
_chemical_formula_sum              "Cs4 H4 S4 O8"
_cell_length_a       5.817371
_cell_length_b       6.411326074356613
_cell_length_c       12.038703921785974
_cell_angle_alpha    93.7344795294116
_cell_angle_beta     90.0
_cell_angle_gamma    116.97998093780937

_space_group_name_H-M_alt    "P 1"
_space_group_IT_number       1

loop_
  _space_group_symop_operation_xyz
  'x, y, z'

loop_
  _atom_site_type_symbol
  _atom_site_label
  _atom_site_symmetry_multiplicity
  _atom_site_fract_x
  _atom_site_fract_y
  _atom_site_fract_z
  _atom_site_occupancy
  Cs  Cs1       1.0  0.668764915317297  0.8096735905855894  0.6368510611355305  1.0000
  Cs  Cs2       1.0  0.341548427939415  0.5636583780869842  0.34419539058580995  1.0000
  Cs  Cs3       1.0  0.28211889276281  0.08725792355835438  0.7802368961274624  1.0000
  Cs  Cs4       1.0  0.4172901585698128  0.14688853546977043  0.2920206808485091  1.0000
  H   H1        1.0  0.31296392530202866  0.7497956017032266  0.7717837826348841  1.0000
  H   H2        1.0  0.004617027938365936  0.9015197083353996  0.3822260070592165  1.0000
  H   H3        1.0  0.1797303557395935  0.18541359901428223  0.474293053150177  1.0000
  H   H4        1.0  0.14931899309158325  0.662654921412468  0.04005740210413933  1.0000
  S   S1        1.0  0.7998496890068054  0.042824119329452515  0.10937481373548508  1.0000
  S   S2        1.0  0.1125296950340271  0.34450188279151917  0.7002181746065617  1.0000
  S   S3        1.0  0.9910421669483185  0.40159258618950844  0.141219362616539  1.0000
  S   S4        1.0  0.4262646287679672  0.08902952075004578  0.9368303939700127  1.0000
  O   O1        1.0  0.47668993938714266  0.1352366767823696  0.5882344145793468  1.0000
  O   O2        1.0  0.9893268318846822  0.6305780420079827  0.2523844197858125  1.0000
  O   O3        1.0  0.7862129090353847  0.07185769826173782  0.3978880103677511  1.0000
  O   O4        1.0  0.9616575706750154  0.44522101897746325  0.6263888337125536  1.0000
  O   O5        1.0  0.07178851356729865  0.8733134068315849  0.9263786727096885  1.0000
  O   O6        1.0  0.005964189767837524  0.09927595034241676  0.28167902352288365  1.0000
  O   O7        1.0  0.9421565625816584  0.23373068973887712  0.5006737468647771  1.0000
  O   O8        1.0  0.07429005310405046  0.9122595174703747  0.4356656455784105  1.0000
data_image96
_chemical_formula_structural       Cs4H4S4O8
_chemical_formula_sum              "Cs4 H4 S4 O8"
_cell_length_a       5.817371
_cell_length_b       6.411326074356613
_cell_length_c       12.038703921785974
_cell_angle_alpha    93.7344795294116
_cell_angle_beta     90.0
_cell_angle_gamma    116.97998093780937

_space_group_name_H-M_alt    "P 1"
_space_group_IT_number       1

loop_
  _space_group_symop_operation_xyz
  'x, y, z'

loop_
  _atom_site_type_symbol
  _atom_site_label
  _atom_site_symmetry_multiplicity
  _atom_site_fract_x
  _atom_site_fract_y
  _atom_site_fract_z
  _atom_site_occupancy
  Cs  Cs1       1.0  0.8137964569032192  0.009433412924408913  0.9588800724595785  1.0000
  Cs  Cs2       1.0  0.9632358103990555  0.8010393250733614  0.14640854159370065  1.0000
  Cs  Cs3       1.0  0.8434155597351491  0.5833221077919006  0.06397418270353228  1.0000
  Cs  Cs4       1.0  0.6814501658082008  0.4481665026396513  0.9618253917433321  1.0000
  H   H1        1.0  0.8498853147029877  0.017233777791261673  0.11832664627581835  1.0000
  H   H2        1.0  0.09404490888118744  0.8664008975028992  0.6454721819609404  1.0000
  H   H3        1.0  0.3400568664073944  0.4286395013332367  0.8873400688171387  1.0000
  H   H4        1.0  0.9684139490127563  0.9354688078165054  0.2341514229774475  1.0000
  S   S1        1.0  0.7746419906616211  0.26762890815734863  0.8197773434221745  1.0000
  S   S2        1.0  0.10881198942661285  0.9688871800899506  0.8865248113870621  1.0000
  S   S3        1.0  0.7325867116451263  0.5881599318236113  0.704847302287817  1.0000
  S   S4        1.0  0.6674576550722122  0.40544696152210236  0.7774042412638664  1.0000
  O   O1        1.0  0.5188880395144224  0.40050789434462786  0.8154667955823243  1.0000
  O   O2        1.0  0.1725598694756627  0.856030298396945  0.25482328282669187  1.0000
  O   O3        1.0  0.44772724620997906  0.49335911870002747  0.5394776109606028  1.0000
  O   O4        1.0  0.758704197127372  0.2310269484296441  0.5497018784226384  1.0000
  O   O5        1.0  0.09691208368167281  0.8172195085790008  0.2480272939428687  1.0000
  O   O6        1.0  0.7551899999380112  0.1386255230754614  0.5004715016111732  1.0000
  O   O7        1.0  0.5173316802829504  0.7128312917193398  0.20267670453176834  1.0000
  O   O8        1.0  0.1041918498231098  0.0576686937129125  0.08853363222442567  1.0000
data_image97
_chemical_formula_structural       Cs4H4S4O8
_chemical_formula_sum              "Cs4 H4 S4 O8"
_cell_length_a       5.817371
_cell_length_b       6.411326074356613
_cell_length_c       12.038703921785974
_cell_angle_alpha    93.7344795294116
_cell_angle_beta     90.0
_cell_angle_gamma    116.97998093780937

_space_group_name_H-M_alt    "P 1"
_space_group_IT_number       1

loop_
  _space_group_symop_operation_xyz
  'x, y, z'

loop_
  _atom_site_type_symbol
  _atom_site_label
  _atom_site_symmetry_multiplicity
  _atom_site_fract_x
  _atom_site_fract_y
  _atom_site_fract_z
  _atom_site_occupancy
  Cs  Cs1       1.0  0.8270970284938812  0.30700316466391087  0.1645100675523281  1.0000
  Cs  Cs2       1.0  0.22264530323445797  0.098091134801507  0.7565835835412145  1.0000
  Cs  Cs3       1.0  0.6999248578213155  0.3152880761772394  0.44240214349702  1.0000
  Cs  Cs4       1.0  0.2787928879261017  0.06087589077651501  0.6227197994012386  1.0000
  H   H1        1.0  0.9539055451750755  0.6566432910040021  0.5430125272832811  1.0000
  H   H2        1.0  0.9935330003499985  0.38270168751478195  0.7547724321484566  1.0000
  H   H3        1.0  0.6151172369718552  0.8589793741703033  0.8944192826747894  1.0000
  H   H4        1.0  0.5687791407108307  0.799874410033226  0.9299595877528191  1.0000
  S   S1        1.0  0.2799566984176636  0.16208350658416748  0.23998147994279861  1.0000
  S   S2        1.0  0.034938663244247437  0.2951289117336273  0.5605167150497437  1.0000
  S   S3        1.0  0.9900459200143814  0.6668237764388323  0.2560589946806431  1.0000
  S   S4        1.0  0.7184735536575317  0.28274962306022644  0.14738423377275467  1.0000
  O   O1        1.0  0.059923166409134865  0.02122668270021677  0.519499471411109  1.0000
  O   O2        1.0  0.14614380802959204  0.01321358047425747  0.8669228907674551  1.0000
  O   O3        1.0  0.5058632818982005  0.21874450147151947  0.25580875016748905  1.0000
  O   O4        1.0  0.0007256041280925274  0.48574895644560456  0.7442695806385018  1.0000
  O   O5        1.0  0.9807191927684471  0.3098017368465662  0.7537642347160727  1.0000
  O   O6        1.0  0.9688394218683243  0.6691186986863613  0.007556431461125612  1.0000
  O   O7        1.0  0.4322294043377042  0.06857314729131758  0.16073694087390322  1.0000
  O   O8        1.0  0.16020611103158444  0.9352357339812443  0.1323959690053016  1.0000
data_image98
_chemical_formula_structural       Cs4H4S4O8
_chemical_formula_sum              "Cs4 H4 S4 O8"
_cell_length_a       5.817371
_cell_length_b       6.411326074356613
_cell_length_c       12.038703921785974
_cell_angle_alpha    93.7344795294116
_cell_angle_beta     90.0
_cell_angle_gamma    116.97998093780937

_space_group_name_H-M_alt    "P 1"
_space_group_IT_number       1

loop_
  _space_group_symop_operation_xyz
  'x, y, z'

loop_
  _atom_site_type_symbol
  _atom_site_label
  _atom_site_symmetry_multiplicity
  _atom_site_fract_x
  _atom_site_fract_y
  _atom_site_fract_z
  _atom_site_occupancy
  Cs  Cs1       1.0  0.9827070347964764  0.6127442289143801  0.8168605081737041  1.0000
  Cs  Cs2       1.0  0.43358456157147884  0.0011997288092970848  0.41015159524977207  1.0000
  Cs  Cs3       1.0  0.5157582182437181  0.08826962858438492  0.3876882770564407  1.0000
  Cs  Cs4       1.0  0.9417511522769928  0.9033401813358068  0.36289327149279416  1.0000
  H   H1        1.0  0.8228530585765839  0.5752926981076598  0.9608167232945561  1.0000
  H   H2        1.0  0.6956852674484253  0.8047521337866783  0.4558122232556343  1.0000
  H   H3        1.0  0.23495011031627655  0.8973634243011475  0.39363086223602295  1.0000
  H   H4        1.0  0.7927182912826538  0.4631056785583496  0.7792374230921268  1.0000
  S   S1        1.0  0.06558811664581299  0.14259549975395203  0.2253735437989235  1.0000
  S   S2        1.0  0.24966411292552948  0.2990974187850952  0.363910548388958  1.0000
  S   S3        1.0  0.8334023952484131  0.8619715590029955  0.03025006130337715  1.0000
  S   S4        1.0  0.3166120946407318  0.19391091167926788  0.3284462243318558  1.0000
  O   O1        1.0  0.04143548011779785  0.2570892833173275  0.5362503246869892  1.0000
  O   O2        1.0  0.8877514060586691  0.626522115431726  0.0905087732244283  1.0000
  O   O3        1.0  0.6385239847004414  0.14278937876224518  0.19591263681650162  1.0000
  O   O4        1.0  0.6659609437920153  0.7145733125507832  0.6907650851353537  1.0000
  O   O5        1.0  0.09569829993415624  0.2417451001238078  0.8982277303002775  1.0000
  O   O6        1.0  0.07856884226202965  0.16333561018109322  0.7383063877932727  1.0000
  O   O7        1.0  0.7048307368531823  0.4234819917473942  0.8177585888042813  1.0000
  O   O8        1.0  0.8977835190016776  0.08933524216990918  0.05479486414697021  1.0000
data_image99
_chemical_formula_structural       Cs4H4S4O8
_chemical_formula_sum              "Cs4 H4 S4 O8"
_cell_length_a       5.817371
_cell_length_b       6.411326074356613
_cell_length_c       12.038703921785974
_cell_angle_alpha    93.7344795294116
_cell_angle_beta     90.0
_cell_angle_gamma    116.97998093780937

_space_group_name_H-M_alt    "P 1"
_space_group_IT_number       1

loop_
  _space_group_symop_operation_xyz
  'x, y, z'

loop_
  _atom_site_type_symbol
  _atom_site_label
  _atom_site_symmetry_multiplicity
  _atom_site_fract_x
  _atom_site_fract_y
  _atom_site_fract_z
  _atom_site_occupancy
  Cs  Cs1       1.0  0.30136514082551  0.37616870924830437  0.8368034847080708  1.0000
  Cs  Cs2       1.0  0.5679894667118788  0.31626997515559196  0.6131643843837082  1.0000
  Cs  Cs3       1.0  0.5237972885370255  0.09462503902614117  0.4916285030776635  1.0000
  Cs  Cs4       1.0  0.9164759516716003  0.673805695027113  0.1006624000146985  1.0000
  H   H1        1.0  0.8488740492612123  0.8400609456002712  0.8508127701934427  1.0000
  H   H2        1.0  0.24019605666399002  0.9788127541542053  0.17107287049293518  1.0000
  H   H3        1.0  0.46920476853847504  0.08633431792259216  0.23843571543693542  1.0000
  H   H4        1.0  0.8824847042560577  0.6285171508789062  0.429869394749403  1.0000
  S   S1        1.0  0.5321283340454102  0.9687540531158447  0.17320502176880836  1.0000
  S   S2        1.0  0.321344792842865  0.41062743961811066  0.43126145005226135  1.0000
  S   S3        1.0  0.6024676710367203  0.4239848842844367  0.6828783117234707  1.0000
  S   S4        1.0  0.980556920170784  0.39168214797973633  0.5820367261767387  1.0000
  O   O1        1.0  0.08727608900517225  0.18901183269917965  0.6447199520189315  1.0000
  O   O2        1.0  0.5924068558961153  0.1568938111886382  0.4592910547507927  1.0000
  O   O3        1.0  0.8231985038146377  0.534916914999485  0.35897714272141457  1.0000
  O   O4        1.0  0.7220674613490701  0.629269152879715  0.3927661705238279  1.0000
  O   O5        1.0  0.2855373630300164  0.7737499768845737  0.5980782865080982  1.0000
  O   O6        1.0  0.8627377040684223  0.4462429452687502  0.7893482809886336  1.0000
  O   O7        1.0  0.6321857972070575  0.6985666687833145  0.2827803942200262  1.0000
  O   O8        1.0  0.8405228471383452  0.44880432402715087  0.4003749891417101  1.0000
data_image100
_chemical_formula_structural       Cs4H4S4O8
_chemical_formula_sum              "Cs4 H4 S4 O8"
_cell_length_a       5.817371
_cell_length_b       6.411326074356613
_cell_length_c       12.038703921785974
_cell_angle_alpha    93.7344795294116
_cell_angle_beta     90.0
_cell_angle_gamma    116.97998093780937

_space_group_name_H-M_alt    "P 1"
_space_group_IT_number       1

loop_
  _space_group_symop_operation_xyz
  'x, y, z'

loop_
  _atom_site_type_symbol
  _atom_site_label
  _atom_site_symmetry_multiplicity
  _atom_site_fract_x
  _atom_site_fract_y
  _atom_site_fract_z
  _atom_site_occupancy
  Cs  Cs1       1.0  0.011603813618421555  0.3286186456680298  0.5161167345941067  1.0000
  Cs  Cs2       1.0  0.49574986658990383  0.054847631603479385  0.2905404199846089  1.0000
  Cs  Cs3       1.0  0.47859626077115536  0.061966728419065475  0.339080500532873  1.0000
  Cs  Cs4       1.0  0.8298241049051285  0.5033589880913496  0.5920524520333856  1.0000
  H   H1        1.0  0.6049813721328974  0.6696575107052922  0.3623683569021523  1.0000
  H   H2        1.0  0.13279391080141068  0.16820432990789413  0.5146289188414812  1.0000
  H   H3        1.0  0.6095519214868546  0.6974122226238251  0.2734384536743164  1.0000
  H   H4        1.0  0.5778550505638123  0.658201053738594  0.4463226646184921  1.0000
  S   S1        1.0  0.9365618824958801  0.2358078956604004  0.8825944066047668  1.0000
  S   S2        1.0  0.685522273182869  0.20014828443527222  0.7149110212922096  1.0000
  S   S3        1.0  0.18420101702213287  0.5108460485935211  0.4687675014138222  1.0000
  S   S4        1.0  0.6388572752475739  0.290423184633255  0.8509158492088318  1.0000
  O   O1        1.0  0.8143610814586282  0.5433324808254838  0.8043055608868599  1.0000
  O   O2        1.0  0.8007253967225552  0.38810799829661846  0.508933259639889  1.0000
  O   O3        1.0  0.3533487459644675  0.4698999896645546  0.32347765378654003  1.0000
  O   O4        1.0  0.5543946933466941  0.5959999556653202  0.8892198320536409  1.0000
  O   O5        1.0  0.7116252896375954  0.37031480111181736  0.24461709731258452  1.0000
  O   O6        1.0  0.4541948661208153  0.5116481445729733  0.4440263817086816  1.0000
  O   O7        1.0  0.8068265058100224  0.09765905980020761  0.8479849603609182  1.0000
  O   O8        1.0  0.6249197409488261  0.5606644848594442  0.8374219329562038  1.0000
data_image101
_chemical_formula_structural       Cs4H4S4O8
_chemical_formula_sum              "Cs4 H4 S4 O8"
_cell_length_a       5.817371
_cell_length_b       6.411326074356613
_cell_length_c       12.038703921785974
_cell_angle_alpha    93.7344795294116
_cell_angle_beta     90.0
_cell_angle_gamma    116.97998093780937

_space_group_name_H-M_alt    "P 1"
_space_group_IT_number       1

loop_
  _space_group_symop_operation_xyz
  'x, y, z'

loop_
  _atom_site_type_symbol
  _atom_site_label
  _atom_site_symmetry_multiplicity
  _atom_site_fract_x
  _atom_site_fract_y
  _atom_site_fract_z
  _atom_site_occupancy
  Cs  Cs1       1.0  0.5333280190825462  0.01093919575214386  0.31437649577856064  1.0000
  Cs  Cs2       1.0  0.5177380815148354  0.6883035004138947  0.24316105572506785  1.0000
  Cs  Cs3       1.0  0.6805841997265816  0.6175872888416052  0.945781824644655  1.0000
  Cs  Cs4       1.0  0.7909081429243088  0.5637956615537405  0.8713192616123706  1.0000
  H   H1        1.0  0.979702390730381  0.6210227310657501  0.499683492584154  1.0000
  H   H2        1.0  0.3002351075410843  0.7601853609085083  0.2534409314393997  1.0000
  H   H3        1.0  0.037919968366622925  0.3310377895832062  0.3284684419631958  1.0000
  H   H4        1.0  0.885747879743576  0.8240239918231964  0.5281120389699936  1.0000
  S   S1        1.0  0.06592684984207153  0.3770003318786621  0.6823286339640617  1.0000
  S   S2        1.0  0.29109105467796326  0.42770232260227203  0.543303307145834  1.0000
  S   S3        1.0  0.6670577377080917  0.9966406624298543  0.4669779911637306  1.0000
  S   S4        1.0  0.4695453494787216  0.03598199784755707  0.0059926435351371765  1.0000
  O   O1        1.0  0.5089670307934284  0.43604056630283594  0.9333907847758383  1.0000
  O   O2        1.0  0.08206312730908394  0.9312598137184978  0.2974376785568893  1.0000
  O   O3        1.0  0.5223164418712258  0.7853043302893639  0.42752911150455475  1.0000
  O   O4        1.0  0.25586656550876796  0.38326746597886086  0.31555557684623636  1.0000
  O   O5        1.0  0.32336839684285223  0.11635186895728111  0.04987553460523486  1.0000
  O   O6        1.0  0.006782539188861847  0.7233862895518541  0.5819579465314746  1.0000
  O   O7        1.0  0.237736607901752  0.7958252822281793  0.45356859161984175  1.0000
  O   O8        1.0  0.027226213191170245  0.7119778610067442  0.6122858247254044  1.0000
data_image102
_chemical_formula_structural       Cs4H4S4O8
_chemical_formula_sum              "Cs4 H4 S4 O8"
_cell_length_a       5.817371
_cell_length_b       6.411326074356613
_cell_length_c       12.038703921785974
_cell_angle_alpha    93.7344795294116
_cell_angle_beta     90.0
_cell_angle_gamma    116.97998093780937

_space_group_name_H-M_alt    "P 1"
_space_group_IT_number       1

loop_
  _space_group_symop_operation_xyz
  'x, y, z'

loop_
  _atom_site_type_symbol
  _atom_site_label
  _atom_site_symmetry_multiplicity
  _atom_site_fract_x
  _atom_site_fract_y
  _atom_site_fract_z
  _atom_site_occupancy
  Cs  Cs1       1.0  0.6733409985899925  0.6298981551080942  0.33667806163430214  1.0000
  Cs  Cs2       1.0  0.8415280673652887  0.14058713242411613  0.5761275179684162  1.0000
  Cs  Cs3       1.0  0.34567405469715595  0.5287353154271841  0.19837975595146418  1.0000
  Cs  Cs4       1.0  0.8645790368318558  0.8151814043521881  0.09494687104597688  1.0000
  H   H1        1.0  0.2906129602342844  0.09951443132013083  0.04990819399245083  1.0000
  H   H2        1.0  0.17687665671110153  0.8441653996706009  0.7449850812554359  1.0000
  H   H3        1.0  0.004464507102966309  0.42814162373542786  0.14536678791046143  1.0000
  H   H4        1.0  0.1642201840877533  0.4959564805030823  0.12391002103686333  1.0000
  S   S1        1.0  0.04498368501663208  0.2074795663356781  0.10765529423952103  1.0000
  S   S2        1.0  0.9792153388261795  0.8828714191913605  0.9067702852189541  1.0000
  S   S3        1.0  0.8381807506084442  0.07550433662254363  0.32759546488523483  1.0000
  S   S4        1.0  0.3804060220718384  0.28418029844760895  0.3800438120961189  1.0000
  O   O1        1.0  0.06559571716934443  0.7804943909868598  0.13321861089207232  1.0000
  O   O2        1.0  0.7598475972190499  0.1680085938423872  0.7596358064329252  1.0000
  O   O3        1.0  0.9847493106499314  0.9860705658793449  0.4175889156758785  1.0000
  O   O4        1.0  0.1289827728178352  0.11593453586101532  0.7135507164348383  1.0000
  O   O5        1.0  0.12493644893402234  0.029902838403359056  0.23645858652889729  1.0000
  O   O6        1.0  0.10041078180074692  0.10131595656275749  0.5186019516550004  1.0000
  O   O7        1.0  0.7894451273605227  0.8475475925952196  0.6960400869866135  1.0000
  O   O8        1.0  0.19794013688806444  0.674272523028776  0.8532853885553777  1.0000
data_image103
_chemical_formula_structural       Cs4H4S4O8
_chemical_formula_sum              "Cs4 H4 S4 O8"
_cell_length_a       5.817371
_cell_length_b       6.411326074356613
_cell_length_c       12.038703921785974
_cell_angle_alpha    93.7344795294116
_cell_angle_beta     90.0
_cell_angle_gamma    116.97998093780937

_space_group_name_H-M_alt    "P 1"
_space_group_IT_number       1

loop_
  _space_group_symop_operation_xyz
  'x, y, z'

loop_
  _atom_site_type_symbol
  _atom_site_label
  _atom_site_symmetry_multiplicity
  _atom_site_fract_x
  _atom_site_fract_y
  _atom_site_fract_z
  _atom_site_occupancy
  Cs  Cs1       1.0  0.6914441660046577  0.3724181894212961  0.03962683863937855  1.0000
  Cs  Cs2       1.0  0.7323278374969959  0.23523974511772394  0.6954412460327148  1.0000
  Cs  Cs3       1.0  0.7826163019053638  0.46210829354822636  0.27788628288544714  1.0000
  Cs  Cs4       1.0  0.6884478405117989  0.053685387596488  0.6998715866357088  1.0000
  H   H1        1.0  0.07506969198584557  0.8360684122890234  0.044784646248444915  1.0000
  H   H2        1.0  0.8874174579977989  0.42506953328847885  0.40504121594130993  1.0000
  H   H3        1.0  0.49008825421333313  0.5118502378463745  0.5147877633571625  1.0000
  H   H4        1.0  0.4783836603164673  0.8474947959184647  0.03989998996257782  1.0000
  S   S1        1.0  0.8567287921905518  0.28696414828300476  0.5861809588968754  1.0000
  S   S2        1.0  0.8390467464923859  0.010963112115859985  0.24572104960680008  1.0000
  S   S3        1.0  0.19627100229263306  0.07372565160039812  0.008617743849754333  1.0000
  S   S4        1.0  0.1162627786397934  0.28389865159988403  0.25465210527181625  1.0000
  O   O1        1.0  0.796515041962266  0.03651156276464462  0.2191071033012122  1.0000
  O   O2        1.0  0.4270921014249325  0.2928071627393365  0.5487605874659494  1.0000
  O   O3        1.0  0.38713338132947683  0.0198073610663414  0.7014651335775852  1.0000
  O   O4        1.0  0.6306507952976972  0.278840153478086  0.2643947402939375  1.0000
  O   O5        1.0  0.5566260036430322  0.4439811431802809  0.32540048751980066  1.0000
  O   O6        1.0  0.9705147445201874  0.25565579161047935  0.425002159550786  1.0000
  O   O7        1.0  0.4858416626229882  0.16449129162356257  0.29301374067290453  1.0000
  O   O8        1.0  0.16001087432960048  0.7219310805667192  0.6110221580602229  1.0000
data_image104
_chemical_formula_structural       Cs4H4S4O8
_chemical_formula_sum              "Cs4 H4 S4 O8"
_cell_length_a       5.817371
_cell_length_b       6.411326074356613
_cell_length_c       12.038703921785974
_cell_angle_alpha    93.7344795294116
_cell_angle_beta     90.0
_cell_angle_gamma    116.97998093780937

_space_group_name_H-M_alt    "P 1"
_space_group_IT_number       1

loop_
  _space_group_symop_operation_xyz
  'x, y, z'

loop_
  _atom_site_type_symbol
  _atom_site_label
  _atom_site_symmetry_multiplicity
  _atom_site_fract_x
  _atom_site_fract_y
  _atom_site_fract_z
  _atom_site_occupancy
  Cs  Cs1       1.0  0.7034598588943481  0.03860098868608475  0.9496345352381468  1.0000
  Cs  Cs2       1.0  0.1320660263299942  0.6174528915435076  0.6654934762045741  1.0000
  Cs  Cs3       1.0  0.35485885152593255  0.010592948645353317  0.34062956599518657  1.0000
  Cs  Cs4       1.0  0.5902989208698273  0.6928698990959674  0.4951276071369648  1.0000
  H   H1        1.0  0.8506769333034754  0.10929127875715494  0.6140856186393648  1.0000
  H   H2        1.0  0.05730949342250824  0.7719354927539825  0.3419864550232887  1.0000
  H   H3        1.0  0.33090007305145264  0.8773545920848846  0.8762039840221405  1.0000
  H   H4        1.0  0.4095365107059479  0.5543325394392014  0.5929539687931538  1.0000
  S   S1        1.0  0.47627735137939453  0.4824548065662384  0.47704285569489  1.0000
  S   S2        1.0  0.764541894197464  0.148960143327713  0.5382973160594702  1.0000
  S   S3        1.0  0.6702531427145004  0.9662055822554976  0.3167482875287533  1.0000
  S   S4        1.0  0.1055620014667511  0.48185501992702484  0.4794909209012985  1.0000
  O   O1        1.0  0.1850981591269374  0.9237787192687392  0.18547004647552967  1.0000
  O   O2        1.0  0.6152510545216501  0.12422579154372215  0.1253683273680508  1.0000
  O   O3        1.0  0.9285114342346787  0.23997897654771805  0.16696841083467007  1.0000
  O   O4        1.0  0.39739047177135944  0.4464688850566745  0.9129798585781828  1.0000
  O   O5        1.0  0.9488805327564478  0.17888663965277374  0.1584764150902629  1.0000
  O   O6        1.0  0.9150905981659889  0.8119149766862392  0.08859104802832007  1.0000
  O   O7        1.0  0.43726081121712923  0.2556216395460069  0.5125126344937598  1.0000
  O   O8        1.0  0.6083139033144107  0.984310844913125  0.9099087510257959  1.0000
data_image105
_chemical_formula_structural       Cs4H4S4O8
_chemical_formula_sum              "Cs4 H4 S4 O8"
_cell_length_a       5.817371
_cell_length_b       6.411326074356613
_cell_length_c       12.038703921785974
_cell_angle_alpha    93.7344795294116
_cell_angle_beta     90.0
_cell_angle_gamma    116.97998093780937

_space_group_name_H-M_alt    "P 1"
_space_group_IT_number       1

loop_
  _space_group_symop_operation_xyz
  'x, y, z'

loop_
  _atom_site_type_symbol
  _atom_site_label
  _atom_site_symmetry_multiplicity
  _atom_site_fract_x
  _atom_site_fract_y
  _atom_site_fract_z
  _atom_site_occupancy
  Cs  Cs1       1.0  0.8290584981441498  0.028538784012198448  0.3478196766227484  1.0000
  Cs  Cs2       1.0  0.18859832175076008  0.9592176515143365  0.17273546429350972  1.0000
  Cs  Cs3       1.0  0.1349257780238986  0.47195095010101795  0.3845660383813083  1.0000
  Cs  Cs4       1.0  0.23499102145433426  0.38164905831217766  0.17994225956499577  1.0000
  H   H1        1.0  0.9189035594463348  0.7770947543904185  0.6773382585961372  1.0000
  H   H2        1.0  0.47227875143289566  0.37495236098766327  0.8885399233549833  1.0000
  H   H3        1.0  0.3055266737937927  0.6639321446418762  0.7567226886749268  1.0000
  H   H4        1.0  0.7299991548061371  0.4878336638212204  0.598964013159275  1.0000
  S   S1        1.0  0.3303062319755554  0.4637000113725662  0.6551170079037547  1.0000
  S   S2        1.0  0.3428408205509186  0.7521306574344635  0.051467014476656914  1.0000
  S   S3        1.0  0.5739964693784714  0.23289245751220733  0.7975923232734203  1.0000
  S   S4        1.0  0.07069262862205505  0.3394894599914551  0.3456149622797966  1.0000
  O   O1        1.0  0.7902140952646732  0.2955611562356353  0.7891726368106902  1.0000
  O   O2        1.0  0.5549443820491433  0.08639356773346663  0.5076829586178064  1.0000
  O   O3        1.0  0.4200928173959255  0.8825762718915939  0.7510142810642719  1.0000
  O   O4        1.0  0.007103206589818001  0.13868501130491495  0.4654713973868638  1.0000
  O   O5        1.0  0.4469876242801547  0.4976662304252386  0.2434591269120574  1.0000
  O   O6        1.0  0.16819147020578384  0.19225315935909748  0.02292870543897152  1.0000
  O   O7        1.0  0.23786002676934004  0.15288645238615572  0.42241717787692323  1.0000
  O   O8        1.0  0.21615738479886204  0.6830695660319179  0.09176503214985132  1.0000
data_image106
_chemical_formula_structural       Cs4H4S4O8
_chemical_formula_sum              "Cs4 H4 S4 O8"
_cell_length_a       5.817371
_cell_length_b       6.411326074356613
_cell_length_c       12.038703921785974
_cell_angle_alpha    93.7344795294116
_cell_angle_beta     90.0
_cell_angle_gamma    116.97998093780937

_space_group_name_H-M_alt    "P 1"
_space_group_IT_number       1

loop_
  _space_group_symop_operation_xyz
  'x, y, z'

loop_
  _atom_site_type_symbol
  _atom_site_label
  _atom_site_symmetry_multiplicity
  _atom_site_fract_x
  _atom_site_fract_y
  _atom_site_fract_z
  _atom_site_occupancy
  Cs  Cs1       1.0  0.6590935066342354  0.1753291841596365  0.6939621474593878  1.0000
  Cs  Cs2       1.0  0.6636420860886574  0.7408383288420737  0.3233255222439766  1.0000
  Cs  Cs3       1.0  0.4033119874075055  0.26046876795589924  0.2727453715633601  1.0000
  Cs  Cs4       1.0  0.22944596409797668  0.4066368490457535  0.5988201312720776  1.0000
  H   H1        1.0  0.48837370052933693  0.7393943713977933  0.664267894346267  1.0000
  H   H2        1.0  0.35900722816586494  0.9979244992136955  0.22392158769071102  1.0000
  H   H3        1.0  0.08971300721168518  0.3572763204574585  0.802187979221344  1.0000
  H   H4        1.0  0.7952225506305695  0.7907859832048416  0.47425273433327675  1.0000
  S   S1        1.0  0.183343768119812  0.539348766207695  0.6865745736286044  1.0000
  S   S2        1.0  0.7326826900243759  0.4861622750759125  0.16483914479613304  1.0000
  S   S3        1.0  0.6988519206643105  0.6443162841023877  0.8326941914856434  1.0000
  S   S4        1.0  0.7304696589708328  0.3794323056936264  0.9381609112024307  1.0000
  O   O1        1.0  0.9672998711466789  0.5725121274590492  0.9164557293988764  1.0000
  O   O2        1.0  0.0728953299112618  0.40804633032530546  0.6116596609354019  1.0000
  O   O3        1.0  0.9038929846137762  0.5885080620646477  0.37722417525947094  1.0000
  O   O4        1.0  0.5305244147311896  0.8244284882675856  0.8758073666831478  1.0000
  O   O5        1.0  0.3397245472879149  0.2983980141580105  0.6632830766029656  1.0000
  O   O6        1.0  0.7088422439992428  0.14052613452076912  0.10334560740739107  1.0000
  O   O7        1.0  0.16798002179712057  0.2146579559193924  0.4180880469502881  1.0000
  O   O8        1.0  0.3762913525570184  0.157327908789739  0.4804814881645143  1.0000
data_image107
_chemical_formula_structural       Cs4H4S4O8
_chemical_formula_sum              "Cs4 H4 S4 O8"
_cell_length_a       5.817371
_cell_length_b       6.411326074356613
_cell_length_c       12.038703921785974
_cell_angle_alpha    93.7344795294116
_cell_angle_beta     90.0
_cell_angle_gamma    116.97998093780937

_space_group_name_H-M_alt    "P 1"
_space_group_IT_number       1

loop_
  _space_group_symop_operation_xyz
  'x, y, z'

loop_
  _atom_site_type_symbol
  _atom_site_label
  _atom_site_symmetry_multiplicity
  _atom_site_fract_x
  _atom_site_fract_y
  _atom_site_fract_z
  _atom_site_occupancy
  Cs  Cs1       1.0  0.31524980813264847  0.8196099326014519  0.5910762529820204  1.0000
  Cs  Cs2       1.0  0.11234873253852129  0.2734678208362311  0.9437814047560096  1.0000
  Cs  Cs3       1.0  0.7804176397621632  0.2597649358212948  0.7142751382198185  1.0000
  Cs  Cs4       1.0  0.28361738473176956  0.3733292445540428  0.8193682674318552  1.0000
  H   H1        1.0  0.20484410971403122  0.6373944981023669  0.7701366189867258  1.0000
  H   H2        1.0  0.3466520868241787  0.39519570022821426  0.15995457768440247  1.0000
  H   H3        1.0  0.1711750477552414  0.7391181886196136  0.39920538663864136  1.0000
  H   H4        1.0  0.6226878464221954  0.5495183169841766  0.1641426496207714  1.0000
  S   S1        1.0  0.007703006267547607  0.43513864278793335  0.26280729146674275  1.0000
  S   S2        1.0  0.08244377374649048  0.1615249514579773  0.40267273038625717  1.0000
  S   S3        1.0  0.9148346409201622  0.2470447631785646  0.94466982036829  1.0000
  S   S4        1.0  0.8060545772314072  0.39522163569927216  0.8353314697742462  1.0000
  O   O1        1.0  0.39824875351041555  0.7136397948488593  0.10748786851763725  1.0000
  O   O2        1.0  0.29764205450192094  0.34758082311600447  0.39186568069271743  1.0000
  O   O3        1.0  0.6932899691164494  0.31575413793325424  0.2827283889055252  1.0000
  O   O4        1.0  0.9240155904553831  0.6454892947804183  0.34648917498998344  1.0000
  O   O5        1.0  0.5546116980840452  0.3376734424382448  0.11023554764688015  1.0000
  O   O6        1.0  0.3938475102186203  0.47393468394875526  0.8609734433703125  1.0000
  O   O7        1.0  0.6467638369649649  0.4082847468671389  0.7852478844579309  1.0000
  O   O8        1.0  0.223606163111981  0.18947749654762447  0.1770978569984436  1.0000
data_image108
_chemical_formula_structural       Cs4H4S4O8
_chemical_formula_sum              "Cs4 H4 S4 O8"
_cell_length_a       5.817371
_cell_length_b       6.411326074356613
_cell_length_c       12.038703921785974
_cell_angle_alpha    93.7344795294116
_cell_angle_beta     90.0
_cell_angle_gamma    116.97998093780937

_space_group_name_H-M_alt    "P 1"
_space_group_IT_number       1

loop_
  _space_group_symop_operation_xyz
  'x, y, z'

loop_
  _atom_site_type_symbol
  _atom_site_label
  _atom_site_symmetry_multiplicity
  _atom_site_fract_x
  _atom_site_fract_y
  _atom_site_fract_z
  _atom_site_occupancy
  Cs  Cs1       1.0  0.8221243768930435  0.29924406856298447  0.7377057000994682  1.0000
  Cs  Cs2       1.0  0.8144016265869141  0.3157886597327888  0.607195857912302  1.0000
  Cs  Cs3       1.0  0.4732397759798914  0.8532358929514885  0.05783242732286453  1.0000
  Cs  Cs4       1.0  0.8049625605344772  0.8068595826625824  0.7067982107400894  1.0000
  H   H1        1.0  0.9603540450334549  0.0040924521163105965  0.2682785168290138  1.0000
  H   H2        1.0  0.7802062258124352  0.008614607155323029  0.5117276310920715  1.0000
  H   H3        1.0  0.7687980234622955  0.47495779395103455  0.9105804562568665  1.0000
  H   H4        1.0  0.5131545066833496  0.9503526836633682  0.2831786014139652  1.0000
  S   S1        1.0  0.9516738653182983  0.39263974130153656  0.8063981747254729  1.0000
  S   S2        1.0  0.09390093386173248  0.5772598087787628  0.4906182698905468  1.0000
  S   S3        1.0  0.1385020911693573  0.5151517195627093  0.388439554721117  1.0000
  S   S4        1.0  0.25091564655303955  0.6683424264192581  0.40684403479099274  1.0000
  O   O1        1.0  0.3839985243976116  0.1375091727823019  0.6324084424413741  1.0000
  O   O2        1.0  0.37185286171734333  0.05380197521299124  0.6588494936004281  1.0000
  O   O3        1.0  0.4948272341862321  0.9933345764875412  0.34788222797214985  1.0000
  O   O4        1.0  0.3911106213927269  0.13789855991490185  0.1214595491765067  1.0000
  O   O5        1.0  0.5930662173195742  0.12386640626937151  0.0702744428999722  1.0000
  O   O6        1.0  0.3617720454931259  0.8273902535438538  0.5512647056020796  1.0000
  O   O7        1.0  0.997882291674614  0.7505594384274445  0.7613460611319169  1.0000
  O   O8        1.0  0.2743186836451059  0.9131083427928388  0.2083258032798767  1.0000
data_image109
_chemical_formula_structural       Cs4H4S4O8
_chemical_formula_sum              "Cs4 H4 S4 O8"
_cell_length_a       5.817371
_cell_length_b       6.411326074356613
_cell_length_c       12.038703921785974
_cell_angle_alpha    93.7344795294116
_cell_angle_beta     90.0
_cell_angle_gamma    116.97998093780937

_space_group_name_H-M_alt    "P 1"
_space_group_IT_number       1

loop_
  _space_group_symop_operation_xyz
  'x, y, z'

loop_
  _atom_site_type_symbol
  _atom_site_label
  _atom_site_symmetry_multiplicity
  _atom_site_fract_x
  _atom_site_fract_y
  _atom_site_fract_z
  _atom_site_occupancy
  Cs  Cs1       1.0  0.14632106944918633  0.943159282207489  0.05826713889837265  1.0000
  Cs  Cs2       1.0  0.321798549965024  0.19732524594292045  0.17838147934526205  1.0000
  Cs  Cs3       1.0  0.7326607569120824  0.3295828364789486  0.0981534537859261  1.0000
  Cs  Cs4       1.0  0.1352163851261139  0.19753193482756615  0.32383351027965546  1.0000
  H   H1        1.0  0.6016864627599716  0.4897087477147579  0.5971536338329315  1.0000
  H   H2        1.0  0.0951320007443428  0.5113718286156654  0.24158762022852898  1.0000
  H   H3        1.0  0.27550382912158966  0.49174490571022034  0.44613686203956604  1.0000
  H   H4        1.0  0.17491868138313293  0.5338374525308609  0.40796589851379395  1.0000
  S   S1        1.0  0.7906838059425354  0.40602870285511017  0.9527229075320065  1.0000
  S   S2        1.0  0.28884273767471313  0.6150774359703064  0.007081139832735062  1.0000
  S   S3        1.0  0.6187115013599396  0.637015619315207  0.11074198782444  1.0000
  S   S4        1.0  0.5916491746902466  0.051885366439819336  0.3937539905309677  1.0000
  O   O1        1.0  0.30437012761831284  0.377459604293108  0.9050563657656312  1.0000
  O   O2        1.0  0.4032448446378112  0.532537205144763  0.0977332426700741  1.0000
  O   O3        1.0  0.8767886571586132  0.6115677654743195  0.4701448678970337  1.0000
  O   O4        1.0  0.668996739666909  0.48713087337091565  0.641204688581638  1.0000
  O   O5        1.0  0.33625923172803596  0.8574957828968763  0.4404230862855911  1.0000
  O   O6        1.0  0.4548168182373047  0.6914141532033682  0.8782707015052438  1.0000
  O   O7        1.0  0.40619277860969305  0.8665803381009027  0.9643357787281275  1.0000
  O   O8        1.0  0.8594189714640379  0.9944568146020174  0.9889095453545451  1.0000
data_image110
_chemical_formula_structural       Cs4H4S4O8
_chemical_formula_sum              "Cs4 H4 S4 O8"
_cell_length_a       5.817371
_cell_length_b       6.411326074356613
_cell_length_c       12.038703921785974
_cell_angle_alpha    93.7344795294116
_cell_angle_beta     90.0
_cell_angle_gamma    116.97998093780937

_space_group_name_H-M_alt    "P 1"
_space_group_IT_number       1

loop_
  _space_group_symop_operation_xyz
  'x, y, z'

loop_
  _atom_site_type_symbol
  _atom_site_label
  _atom_site_symmetry_multiplicity
  _atom_site_fract_x
  _atom_site_fract_y
  _atom_site_fract_z
  _atom_site_occupancy
  Cs  Cs1       1.0  0.9294709526002407  0.24629538133740425  0.3964395374059677  1.0000
  Cs  Cs2       1.0  0.2277116198092699  0.23095784871838987  0.062499616760760546  1.0000
  Cs  Cs3       1.0  0.878623184747994  0.18392959237098694  0.7809776561334729  1.0000
  Cs  Cs4       1.0  0.9958723410964012  0.0037164054811000824  0.8544857427477837  1.0000
  H   H1        1.0  0.0618220716714859  0.3675316460430622  0.5316814668476582  1.0000
  H   H2        1.0  0.13488821685314178  0.029188767075538635  0.4511009752750397  1.0000
  H   H3        1.0  0.6052709817886353  0.1705470085144043  0.5286469757556915  1.0000
  H   H4        1.0  0.8293222188949585  0.5427711308002472  0.29461856931447983  1.0000
  S   S1        1.0  0.6848453283309937  0.08893167972564697  0.686164038721472  1.0000
  S   S2        1.0  0.967900961637497  0.8044831454753876  0.5017450302839279  1.0000
  S   S3        1.0  0.976795420050621  0.6381252855062485  0.6022472120821476  1.0000
  S   S4        1.0  0.3778344690799713  0.3617771416902542  0.3400093913078308  1.0000
  O   O1        1.0  0.20924509689211845  0.2161229755729437  0.16551444306969643  1.0000
  O   O2        1.0  0.568650271743536  0.06284397188574076  0.5361577367875725  1.0000
  O   O3        1.0  0.2859918614849448  0.2774669677019119  0.47881765104830265  1.0000
  O   O4        1.0  0.6092360590118915  0.7779096150770783  0.37509467534255236  1.0000
  O   O5        1.0  0.5925423781736754  0.923843739554286  0.24958806298673153  1.0000
  O   O6        1.0  0.2808602787554264  0.48714497312903404  0.2549938792362809  1.0000
  O   O7        1.0  0.3339022947475314  0.18626933812629431  0.6501700442750007  1.0000
  O   O8        1.0  0.8350711042294279  0.1654608570970595  0.24761147936806083  1.0000
data_image111
_chemical_formula_structural       Cs4H4S4O8
_chemical_formula_sum              "Cs4 H4 S4 O8"
_cell_length_a       5.817371
_cell_length_b       6.411326074356613
_cell_length_c       12.038703921785974
_cell_angle_alpha    93.7344795294116
_cell_angle_beta     90.0
_cell_angle_gamma    116.97998093780937

_space_group_name_H-M_alt    "P 1"
_space_group_IT_number       1

loop_
  _space_group_symop_operation_xyz
  'x, y, z'

loop_
  _atom_site_type_symbol
  _atom_site_label
  _atom_site_symmetry_multiplicity
  _atom_site_fract_x
  _atom_site_fract_y
  _atom_site_fract_z
  _atom_site_occupancy
  Cs  Cs1       1.0  0.06204044073820114  0.044743871316313744  0.5315990969538689  1.0000
  Cs  Cs2       1.0  0.4128417484462261  0.4579388040583581  0.6421823124401271  1.0000
  Cs  Cs3       1.0  0.18024255614727736  0.4001847133040428  0.6125123859383166  1.0000
  Cs  Cs4       1.0  0.7979370057582855  0.6874177642166615  0.8553252331912518  1.0000
  H   H1        1.0  0.06711593270301819  0.7070848913863301  0.23509912192821503  1.0000
  H   H2        1.0  0.9028915837407112  0.09637374430894852  0.7146131210029125  1.0000
  H   H3        1.0  0.3491293489933014  0.2924101650714874  0.0867985188961029  1.0000
  H   H4        1.0  0.8041367828845978  0.26519806683063507  0.3926718644797802  1.0000
  S   S1        1.0  0.40534377098083496  0.9672617465257645  0.20394313568249345  1.0000
  S   S2        1.0  0.4085923284292221  0.6302100718021393  0.5460168905556202  1.0000
  S   S3        1.0  0.9274512231349945  0.4819187456741929  0.8354420065879822  1.0000
  S   S4        1.0  0.5404757857322693  0.17620283365249634  0.2734571099281311  1.0000
  O   O1        1.0  0.10052311141043901  0.8503119368106127  0.7578992526978254  1.0000
  O   O2        1.0  0.16671607084572315  0.5864716833457351  0.19788517779670656  1.0000
  O   O3        1.0  0.9598164167255163  0.4318689629435539  0.6181392725557089  1.0000
  O   O4        1.0  0.6771421686280519  0.1810488193295896  0.6904663000022992  1.0000
  O   O5        1.0  0.2811834494350478  0.19765207916498184  0.9688972237054259  1.0000
  O   O6        1.0  0.6730846278369427  0.5385109689086676  0.6300239847041667  1.0000
  O   O7        1.0  0.8287924099713564  0.7383037150138989  0.13482711696997285  1.0000
  O   O8        1.0  0.26143526908708736  0.1914129415526986  0.5172370132058859  1.0000
data_image112
_chemical_formula_structural       Cs4H4S4O8
_chemical_formula_sum              "Cs4 H4 S4 O8"
_cell_length_a       5.817371
_cell_length_b       6.411326074356613
_cell_length_c       12.038703921785974
_cell_angle_alpha    93.7344795294116
_cell_angle_beta     90.0
_cell_angle_gamma    116.97998093780937

_space_group_name_H-M_alt    "P 1"
_space_group_IT_number       1

loop_
  _space_group_symop_operation_xyz
  'x, y, z'

loop_
  _atom_site_type_symbol
  _atom_site_label
  _atom_site_symmetry_multiplicity
  _atom_site_fract_x
  _atom_site_fract_y
  _atom_site_fract_z
  _atom_site_occupancy
  Cs  Cs1       1.0  0.031455036252737045  0.9554503820836544  0.6448355726897717  1.0000
  Cs  Cs2       1.0  0.869322469457984  0.7945156249916181  0.4497723680688068  1.0000
  Cs  Cs3       1.0  0.9316760059446096  0.48099805414676666  0.7807572153396904  1.0000
  Cs  Cs4       1.0  0.7225999608635902  0.946116715669632  0.8465438596904278  1.0000
  H   H1        1.0  0.5671824812889099  0.9019270343706012  0.652032345533371  1.0000
  H   H2        1.0  0.9767650850117207  0.0750424899160862  0.6357138305902481  1.0000
  H   H3        1.0  0.9350799918174744  0.9960505366325378  0.42878401279449463  1.0000
  H   H4        1.0  0.3061123788356781  0.3535386472940445  0.8121022209525108  1.0000
  S   S1        1.0  0.5290661454200745  0.45502859354019165  0.08194757765159011  1.0000
  S   S2        1.0  0.906905859708786  0.44623255729675293  0.8946708105504513  1.0000
  S   S3        1.0  0.4768570214509964  0.9242959469556808  0.4224218279123306  1.0000
  S   S4        1.0  0.10333345830440521  0.2683171331882477  0.7350869327783585  1.0000
  O   O1        1.0  0.8632133407518268  0.216738055460155  0.5996080487966537  1.0000
  O   O2        1.0  0.8547445060685277  0.3170969672501087  0.046507274731993675  1.0000
  O   O3        1.0  0.04257797822356224  0.09861114621162415  0.2925755698233843  1.0000
  O   O4        1.0  0.9308347485493869  0.431750163435936  0.9867799684870988  1.0000
  O   O5        1.0  0.24856819625711069  0.34212580416351557  0.8803110599983484  1.0000
  O   O6        1.0  0.3944055624306202  0.4115259386599064  0.12912573106586933  1.0000
  O   O7        1.0  0.9476134944707155  0.7407472711056471  0.8036438375711441  1.0000
  O   O8        1.0  0.045078650990035385  0.3491124580614269  0.22668357891961932  1.0000
data_image113
_chemical_formula_structural       Cs4H4S4O8
_chemical_formula_sum              "Cs4 H4 S4 O8"
_cell_length_a       5.817371
_cell_length_b       6.411326074356613
_cell_length_c       12.038703921785974
_cell_angle_alpha    93.7344795294116
_cell_angle_beta     90.0
_cell_angle_gamma    116.97998093780937

_space_group_name_H-M_alt    "P 1"
_space_group_IT_number       1

loop_
  _space_group_symop_operation_xyz
  'x, y, z'

loop_
  _atom_site_type_symbol
  _atom_site_label
  _atom_site_symmetry_multiplicity
  _atom_site_fract_x
  _atom_site_fract_y
  _atom_site_fract_z
  _atom_site_occupancy
  Cs  Cs1       1.0  0.9316575191915035  0.31643724255263805  0.01745549589395523  1.0000
  Cs  Cs2       1.0  0.3013586886227131  0.9919464096892625  0.9311758154071867  1.0000
  Cs  Cs3       1.0  0.3854897487908602  0.22837509401142597  0.9239306626841426  1.0000
  Cs  Cs4       1.0  0.44413258880376816  0.08724811300635338  0.05862957984209061  1.0000
  H   H1        1.0  0.5150718539953232  0.30270393704995513  0.06100946292281151  1.0000
  H   H2        1.0  0.8488408029079437  0.345633115619421  0.5835885778069496  1.0000
  H   H3        1.0  0.14535515010356903  0.27969321608543396  0.9689691364765167  1.0000
  H   H4        1.0  0.8612528145313263  0.38263268768787384  0.5681446343660355  1.0000
  S   S1        1.0  0.5434271097183228  0.7620239406824112  0.604859204031527  1.0000
  S   S2        1.0  0.9640926420688629  0.5035646557807922  0.6592569686472416  1.0000
  S   S3        1.0  0.1288704127073288  0.1521250233054161  0.19072434306144714  1.0000
  S   S4        1.0  0.5544176548719406  0.707972377538681  0.8394638746976852  1.0000
  O   O1        1.0  0.8140110010281205  0.3259386941790581  0.11726795230060816  1.0000
  O   O2        1.0  0.45441669039428234  0.37191198486834764  0.6646454213187099  1.0000
  O   O3        1.0  0.17775642406195402  0.8783690631389618  0.28354397788643837  1.0000
  O   O4        1.0  0.3278319702949375  0.6310477685183287  0.9067389270057902  1.0000
  O   O5        1.0  0.6072274331236258  0.5292461114004254  0.41826013405807316  1.0000
  O   O6        1.0  0.47617096081376076  0.423720495775342  0.4593641497194767  1.0000
  O   O7        1.0  0.7825161684304476  0.3099313142010942  0.07208855240605772  1.0000
  O   O8        1.0  0.18094001663848758  0.3591579017229378  0.07283833669498563  1.0000
data_image114
_chemical_formula_structural       Cs4H4S4O8
_chemical_formula_sum              "Cs4 H4 S4 O8"
_cell_length_a       5.817371
_cell_length_b       6.411326074356613
_cell_length_c       12.038703921785974
_cell_angle_alpha    93.7344795294116
_cell_angle_beta     90.0
_cell_angle_gamma    116.97998093780937

_space_group_name_H-M_alt    "P 1"
_space_group_IT_number       1

loop_
  _space_group_symop_operation_xyz
  'x, y, z'

loop_
  _atom_site_type_symbol
  _atom_site_label
  _atom_site_symmetry_multiplicity
  _atom_site_fract_x
  _atom_site_fract_y
  _atom_site_fract_z
  _atom_site_occupancy
  Cs  Cs1       1.0  0.16475909948349  0.09371521137654781  0.61723542958498  1.0000
  Cs  Cs2       1.0  0.29545328579843044  0.005608094157651067  0.3993415208533406  1.0000
  Cs  Cs3       1.0  0.36980156134814024  0.29370979592204094  0.9342847689986229  1.0000
  Cs  Cs4       1.0  0.986376516520977  0.7726009711623192  0.47784149646759033  1.0000
  H   H1        1.0  0.88676518201828  0.636945525649935  0.7349715456366539  1.0000
  H   H2        1.0  0.07060364633798599  0.8101600483059883  0.6090276911854744  1.0000
  H   H3        1.0  0.7573691606521606  0.38586902618408203  0.38212600350379944  1.0000
  H   H4        1.0  0.16645920276641846  0.5400452166795731  0.16949248686432838  1.0000
  S   S1        1.0  0.6211855411529541  0.9110555201768875  0.1549552846699953  1.0000
  S   S2        1.0  0.5865044593811035  0.41145768761634827  0.08091802895069122  1.0000
  S   S3        1.0  0.5011810809373856  0.18221263587474823  0.8734437525272369  1.0000
  S   S4        1.0  0.41201654076576233  0.6242080926895142  0.5389974564313889  1.0000
  O   O1        1.0  0.5184350563213229  0.013950937427580357  0.3748268815688789  1.0000
  O   O2        1.0  0.5373600930906832  0.31346624810248613  0.5318182287737727  1.0000
  O   O3        1.0  0.46106993965804577  0.488984651863575  0.5741177704185247  1.0000
  O   O4        1.0  0.775985479587689  0.09594158385880291  0.10023215622641146  1.0000
  O   O5        1.0  0.790787216508761  0.5365240899845958  0.9035006428603083  1.0000
  O   O6        1.0  0.5202157832682133  0.6540183201432228  0.35253946762531996  1.0000
  O   O7        1.0  0.445494188927114  0.1172677839640528  0.46499174810014665  1.0000
  O   O8        1.0  0.4686775440495694  0.7672295714728534  0.5014634504914284  1.0000
data_image115
_chemical_formula_structural       Cs4H4S4O8
_chemical_formula_sum              "Cs4 H4 S4 O8"
_cell_length_a       5.817371
_cell_length_b       6.411326074356613
_cell_length_c       12.038703921785974
_cell_angle_alpha    93.7344795294116
_cell_angle_beta     90.0
_cell_angle_gamma    116.97998093780937

_space_group_name_H-M_alt    "P 1"
_space_group_IT_number       1

loop_
  _space_group_symop_operation_xyz
  'x, y, z'

loop_
  _atom_site_type_symbol
  _atom_site_label
  _atom_site_symmetry_multiplicity
  _atom_site_fract_x
  _atom_site_fract_y
  _atom_site_fract_z
  _atom_site_occupancy
  Cs  Cs1       1.0  0.2425459362566471  0.02751612477004528  0.06868666782975197  1.0000
  Cs  Cs2       1.0  0.8460671529173851  0.8295384016819298  0.4145328919403255  1.0000
  Cs  Cs3       1.0  0.6937910001724958  0.7307417541742325  0.6562669482082129  1.0000
  Cs  Cs4       1.0  0.6136868819594383  0.5389497950673103  0.6452828943729401  1.0000
  H   H1        1.0  0.2316298633813858  0.5403076349757612  0.42679935321211815  1.0000
  H   H2        1.0  0.4670998118817806  0.0017766989767551422  0.1652507595717907  1.0000
  H   H3        1.0  0.3265731483697891  0.9813714325428009  0.9434564709663391  1.0000
  H   H4        1.0  0.998420774936676  0.6252742260694504  0.08759024366736412  1.0000
  S   S1        1.0  0.9056088328361511  0.9034317880868912  0.31857974035665393  1.0000
  S   S2        1.0  0.14460240304470062  0.9049789607524872  0.45072609931230545  1.0000
  S   S3        1.0  0.5108521431684494  0.5666972766630352  0.3001561686396599  1.0000
  S   S4        1.0  0.95908522605896  0.3510283827781677  0.9588006138801575  1.0000
  O   O1        1.0  0.7317615235224366  0.6237369626760483  0.2809001002460718  1.0000
  O   O2        1.0  0.4863111465238035  0.7290313774719834  0.44940629217308015  1.0000
  O   O3        1.0  0.44725695811212063  0.5186583921313286  0.2879682183265686  1.0000
  O   O4        1.0  0.28665800322778523  0.5148337404243648  0.16334262781310827  1.0000
  O   O5        1.0  0.36791307234670967  0.9297916973009706  0.5444129444658756  1.0000
  O   O6        1.0  0.3058541491627693  0.32671309262514114  0.7153586591593921  1.0000
  O   O7        1.0  0.22537747398018837  0.7068441964220256  0.8797593372873962  1.0000
  O   O8        1.0  0.5277620495908195  0.38310790760442615  0.7591744884848595  1.0000
data_image116
_chemical_formula_structural       Cs4H4S4O8
_chemical_formula_sum              "Cs4 H4 S4 O8"
_cell_length_a       5.817371
_cell_length_b       6.411326074356613
_cell_length_c       12.038703921785974
_cell_angle_alpha    93.7344795294116
_cell_angle_beta     90.0
_cell_angle_gamma    116.97998093780937

_space_group_name_H-M_alt    "P 1"
_space_group_IT_number       1

loop_
  _space_group_symop_operation_xyz
  'x, y, z'

loop_
  _atom_site_type_symbol
  _atom_site_label
  _atom_site_symmetry_multiplicity
  _atom_site_fract_x
  _atom_site_fract_y
  _atom_site_fract_z
  _atom_site_occupancy
  Cs  Cs1       1.0  0.8778177760541439  0.021736761555075645  0.40719524025917053  1.0000
  Cs  Cs2       1.0  0.45445127598941326  0.0758093073964119  0.14024024736136198  1.0000
  Cs  Cs3       1.0  0.033376785926520824  0.48642585426568985  0.41922881500795484  1.0000
  Cs  Cs4       1.0  0.8174463212490082  0.45750046893954277  0.15793901681900024  1.0000
  H   H1        1.0  0.038454264402389526  0.18118158308789134  0.8201347887516022  1.0000
  H   H2        1.0  0.48232220113277435  0.9578990563750267  0.4263915605843067  1.0000
  H   H3        1.0  0.5743775963783264  0.5231806337833405  0.9081123471260071  1.0000
  H   H4        1.0  0.583147406578064  0.5768320709466934  0.4012083075940609  1.0000
  S   S1        1.0  0.3000339865684509  0.022960856556892395  0.08956924825906754  1.0000
  S   S2        1.0  0.28732092678546906  0.6749167740345001  0.5028746575117111  1.0000
  S   S3        1.0  0.21179336309432983  0.04656126303598285  0.468715600669384  1.0000
  S   S4        1.0  0.47556576132774353  0.27900469303131104  0.08666272461414337  1.0000
  O   O1        1.0  0.3919413108378649  0.15902756340801716  0.5538275707513094  1.0000
  O   O2        1.0  0.6575805763714015  0.5387719040736556  0.012060843990184367  1.0000
  O   O3        1.0  0.5746095478534698  0.16857320815324783  0.8025420717895031  1.0000
  O   O4        1.0  0.7543348451144993  0.8388756499625742  0.21587263443507254  1.0000
  O   O5        1.0  0.34249357145745307  0.15652511734515429  0.9336974637117237  1.0000
  O   O6        1.0  0.5366155430674553  0.6021645311266184  0.8844966990873218  1.0000
  O   O7        1.0  0.744660884141922  0.012981407111510634  0.559560781577602  1.0000
  O   O8        1.0  0.5810416940803407  0.5102402358315885  0.9962623720057309  1.0000
data_image117
_chemical_formula_structural       Cs4H4S4O8
_chemical_formula_sum              "Cs4 H4 S4 O8"
_cell_length_a       5.817371
_cell_length_b       6.411326074356613
_cell_length_c       12.038703921785974
_cell_angle_alpha    93.7344795294116
_cell_angle_beta     90.0
_cell_angle_gamma    116.97998093780937

_space_group_name_H-M_alt    "P 1"
_space_group_IT_number       1

loop_
  _space_group_symop_operation_xyz
  'x, y, z'

loop_
  _atom_site_type_symbol
  _atom_site_label
  _atom_site_symmetry_multiplicity
  _atom_site_fract_x
  _atom_site_fract_y
  _atom_site_fract_z
  _atom_site_occupancy
  Cs  Cs1       1.0  0.5852689519524574  0.2134559191763401  0.05454235151410103  1.0000
  Cs  Cs2       1.0  0.5648074056953192  0.5325804480817169  0.10614525293931365  1.0000
  Cs  Cs3       1.0  0.22156449500471354  0.9378346838057041  0.913789174053818  1.0000
  Cs  Cs4       1.0  0.42005033791065216  0.5606028623878956  0.4421590156853199  1.0000
  H   H1        1.0  0.018955081701278687  0.6412686903495342  0.04661806300282478  1.0000
  H   H2        1.0  0.14471814408898354  0.8470213785767555  0.6639430727809668  1.0000
  H   H3        1.0  0.9379414319992065  0.19978898763656616  0.2813653349876404  1.0000
  H   H4        1.0  0.92304927110672  0.3263453543186188  0.03882564976811409  1.0000
  S   S1        1.0  0.24484318494796753  0.6141527593135834  0.679446654394269  1.0000
  S   S2        1.0  0.910196378827095  0.8037179112434387  0.5442536287009716  1.0000
  S   S3        1.0  0.6148922443389893  0.8228427381254733  0.864786759018898  1.0000
  S   S4        1.0  0.45155857503414154  0.0423794686794281  0.8617792129516602  1.0000
  O   O1        1.0  0.4450301742181182  0.3921442376449704  0.4930600109510124  1.0000
  O   O2        1.0  0.7489792150445282  0.33304065465927124  0.31326334818731993  1.0000
  O   O3        1.0  0.5876762019470334  0.7118156552314758  0.47299205511808395  1.0000
  O   O4        1.0  0.21962279314175248  0.7924335952848196  0.8602982984157279  1.0000
  O   O5        1.0  0.4767853005323559  0.9347604420036077  0.49096954171545804  1.0000
  O   O6        1.0  0.5801102593541145  0.7255902551114559  0.08005907712504268  1.0000
  O   O7        1.0  0.22181853372603655  0.2863286178326234  0.5689889341592789  1.0000
  O   O8        1.0  0.9084217751660617  0.7527458956465125  0.22625985648483038  1.0000
data_image118
_chemical_formula_structural       Cs4H4S4O8
_chemical_formula_sum              "Cs4 H4 S4 O8"
_cell_length_a       5.817371
_cell_length_b       6.411326074356613
_cell_length_c       12.038703921785974
_cell_angle_alpha    93.7344795294116
_cell_angle_beta     90.0
_cell_angle_gamma    116.97998093780937

_space_group_name_H-M_alt    "P 1"
_space_group_IT_number       1

loop_
  _space_group_symop_operation_xyz
  'x, y, z'

loop_
  _atom_site_type_symbol
  _atom_site_label
  _atom_site_symmetry_multiplicity
  _atom_site_fract_x
  _atom_site_fract_y
  _atom_site_fract_z
  _atom_site_occupancy
  Cs  Cs1       1.0  0.6243307627737522  0.6770413126796484  0.9357420727610588  1.0000
  Cs  Cs2       1.0  0.3944753985852003  0.9854628052562475  0.8411012683063745  1.0000
  Cs  Cs3       1.0  0.13356471993029118  0.7062146067619324  0.12307329522445798  1.0000
  Cs  Cs4       1.0  0.394777849316597  0.12399736419320107  0.7343452088534832  1.0000
  H   H1        1.0  0.07627503573894501  0.5755509401205927  0.4515381343662739  1.0000
  H   H2        1.0  0.9149450659751892  0.23702530190348625  0.6335294879972935  1.0000
  H   H3        1.0  0.7889620512723923  0.5032548010349274  0.14002397656440735  1.0000
  H   H4        1.0  0.6875985860824585  0.8694812208414078  0.3136916160583496  1.0000
  S   S1        1.0  0.9825238585472107  0.4616376608610153  0.4676093584857881  1.0000
  S   S2        1.0  0.013238519430160522  0.9633049666881561  0.021156340837478638  1.0000
  S   S3        1.0  0.36594828963279724  0.513350285589695  0.5948781743645668  1.0000
  S   S4        1.0  0.8715881407260895  0.12188573181629181  0.07587018609046936  1.0000
  O   O1        1.0  0.1767699858173728  0.4343777075409889  0.5400416827760637  1.0000
  O   O2        1.0  0.6100102397613227  0.729543169029057  0.14860585203859955  1.0000
  O   O3        1.0  0.7086125342175364  0.5200348943471909  0.07586345076560974  1.0000
  O   O4        1.0  0.4686135179363191  0.7386957311537117  0.04777818755246699  1.0000
  O   O5        1.0  0.5806357393739745  0.3565303646028042  0.3177001690492034  1.0000
  O   O6        1.0  0.5309999138116837  0.19715357944369316  0.6663157674483955  1.0000
  O   O7        1.0  0.7952460497617722  0.5476952175376937  0.5271488074213266  1.0000
  O   O8        1.0  0.3339785896241665  0.6398700517602265  0.08768910216167569  1.0000
data_image119
_chemical_formula_structural       Cs4H4S4O8
_chemical_formula_sum              "Cs4 H4 S4 O8"
_cell_length_a       5.817371
_cell_length_b       6.411326074356613
_cell_length_c       12.038703921785974
_cell_angle_alpha    93.7344795294116
_cell_angle_beta     90.0
_cell_angle_gamma    116.97998093780937

_space_group_name_H-M_alt    "P 1"
_space_group_IT_number       1

loop_
  _space_group_symop_operation_xyz
  'x, y, z'

loop_
  _atom_site_type_symbol
  _atom_site_label
  _atom_site_symmetry_multiplicity
  _atom_site_fract_x
  _atom_site_fract_y
  _atom_site_fract_z
  _atom_site_occupancy
  Cs  Cs1       1.0  0.456827737390995  0.5635180901736021  0.9487002566456795  1.0000
  Cs  Cs2       1.0  0.9391631875187159  0.3114098981022835  0.7382389823906124  1.0000
  Cs  Cs3       1.0  0.26341288536787033  0.2420306708663702  0.0929073333973065  1.0000
  Cs  Cs4       1.0  0.5116270408034325  0.607051283121109  0.536918917670846  1.0000
  H   H1        1.0  0.16117753088474274  0.4495332036167383  0.3850587382912636  1.0000
  H   H2        1.0  0.8135644495487213  0.17546890676021576  0.03741868957877159  1.0000
  H   H3        1.0  0.1780734807252884  0.054315388202667236  0.4429844319820404  1.0000
  H   H4        1.0  0.6908116638660431  0.35666921734809875  0.9644931368529797  1.0000
  S   S1        1.0  0.06608155369758606  0.7848252281546593  0.6880176533013582  1.0000
  S   S2        1.0  0.4208455979824066  0.5232182741165161  0.04323422908782959  1.0000
  S   S3        1.0  0.4442145973443985  0.3465943788178265  0.4104637950658798  1.0000
  S   S4        1.0  0.012781292200088501  0.41378797590732574  0.7117073982954025  1.0000
  O   O1        1.0  0.3717716205865145  0.7906991988420486  0.1930781751871109  1.0000
  O   O2        1.0  0.40899789659306407  0.9497680850327015  0.14278681087307632  1.0000
  O   O3        1.0  0.4374510161578655  0.4948672279715538  0.8111398480832577  1.0000
  O   O4        1.0  0.6076929518021643  0.6393539553973824  0.08641243819147348  1.0000
  O   O5        1.0  0.2878802426857874  0.9524300368502736  0.31654994538985193  1.0000
  O   O6        1.0  0.6895667016506195  0.1906748153269291  0.8781600049696863  1.0000
  O   O7        1.0  0.82935447152704  0.5346499724255409  0.4922274023992941  1.0000
  O   O8        1.0  0.7552521755569614  0.09208475286141038  0.5296446620486677  1.0000
data_image120
_chemical_formula_structural       Cs4H4S4O8
_chemical_formula_sum              "Cs4 H4 S4 O8"
_cell_length_a       5.817371
_cell_length_b       6.411326074356613
_cell_length_c       12.038703921785974
_cell_angle_alpha    93.7344795294116
_cell_angle_beta     90.0
_cell_angle_gamma    116.97998093780937

_space_group_name_H-M_alt    "P 1"
_space_group_IT_number       1

loop_
  _space_group_symop_operation_xyz
  'x, y, z'

loop_
  _atom_site_type_symbol
  _atom_site_label
  _atom_site_symmetry_multiplicity
  _atom_site_fract_x
  _atom_site_fract_y
  _atom_site_fract_z
  _atom_site_occupancy
  Cs  Cs1       1.0  0.5990936160087585  0.5108717437833548  0.03313218802213669  1.0000
  Cs  Cs2       1.0  0.02777746692299843  0.17570976680144668  0.9178512152284384  1.0000
  Cs  Cs3       1.0  0.505393959581852  0.8277580365538597  0.3204085249453783  1.0000
  Cs  Cs4       1.0  0.7432335987687111  0.332187470048666  0.6175026819109917  1.0000
  H   H1        1.0  0.26025719940662384  0.6674159839749336  0.8781578838825226  1.0000
  H   H2        1.0  0.8445247448980808  0.3675205074250698  0.11560510843992233  1.0000
  H   H3        1.0  0.264161616563797  0.8391324579715729  0.9552941918373108  1.0000
  H   H4        1.0  0.7047548592090607  0.08805444836616516  0.3874755688011646  1.0000
  S   S1        1.0  0.2882683575153351  0.9176222495734692  0.9654847905039787  1.0000
  S   S2        1.0  0.8452367037534714  0.7868919968605042  0.3537509813904762  1.0000
  S   S3        1.0  0.04578094184398651  0.9197149430401623  0.43899718672037125  1.0000
  S   S4        1.0  0.9248069673776627  0.1865873634815216  0.4220931977033615  1.0000
  O   O1        1.0  0.543287381529808  0.5260185319930315  0.07250042259693146  1.0000
  O   O2        1.0  0.3369761360809207  0.5798203200101852  0.6854914391878992  1.0000
  O   O3        1.0  0.8283434268087149  0.7993960827589035  0.20923043973743916  1.0000
  O   O4        1.0  0.5696429149247706  0.896509084617719  0.7539115885738283  1.0000
  O   O5        1.0  0.7193153549451381  0.057848150841891766  0.7889199741184711  1.0000
  O   O6        1.0  0.48696669191122055  0.08627849258482456  0.168008744250983  1.0000
  O   O7        1.0  0.8924519764259458  0.5494982082163915  0.049633628921583295  1.0000
  O   O8        1.0  0.5711642248206772  0.5505869844928384  0.5029504089616239  1.0000
data_image121
_chemical_formula_structural       Cs4H4S4O8
_chemical_formula_sum              "Cs4 H4 S4 O8"
_cell_length_a       5.817371
_cell_length_b       6.411326074356613
_cell_length_c       12.038703921785974
_cell_angle_alpha    93.7344795294116
_cell_angle_beta     90.0
_cell_angle_gamma    116.97998093780937

_space_group_name_H-M_alt    "P 1"
_space_group_IT_number       1

loop_
  _space_group_symop_operation_xyz
  'x, y, z'

loop_
  _atom_site_type_symbol
  _atom_site_label
  _atom_site_symmetry_multiplicity
  _atom_site_fract_x
  _atom_site_fract_y
  _atom_site_fract_z
  _atom_site_occupancy
  Cs  Cs1       1.0  0.7986250519752502  0.6278934199362993  0.9085714258253574  1.0000
  Cs  Cs2       1.0  0.1878842357546091  0.013880920596420765  0.3752278215251863  1.0000
  Cs  Cs3       1.0  0.3114254102110863  0.46965158032253385  0.5770213310606778  1.0000
  Cs  Cs4       1.0  0.2184261903166771  0.35573265329003334  0.5374395344406366  1.0000
  H   H1        1.0  0.03404812514781952  0.8191693015396595  0.8109511956572533  1.0000
  H   H2        1.0  0.7542166896164417  0.05756903439760208  0.8547459039837122  1.0000
  H   H3        1.0  0.815438836812973  0.7999787926673889  0.7566999793052673  1.0000
  H   H4        1.0  0.7518106400966644  0.4923504889011383  0.5151242651045322  1.0000
  S   S1        1.0  0.2078419327735901  0.24372607097029686  0.7969834953546524  1.0000
  S   S2        1.0  0.5282199084758759  0.42420491576194763  0.49684515967965126  1.0000
  S   S3        1.0  0.8094182163476944  0.25427129585295916  0.24374492466449738  1.0000
  S   S4        1.0  0.7857722342014313  0.6205327808856964  0.9291234314441681  1.0000
  O   O1        1.0  0.03380346903577447  0.775511497631669  0.024981170427054167  1.0000
  O   O2        1.0  0.5742127951234579  0.07550771906971931  0.5306956628337502  1.0000
  O   O3        1.0  0.9750274084508419  0.10320250689983368  0.8021606933325529  1.0000
  O   O4        1.0  0.3201141476165503  0.9907537798862904  0.6488938494585454  1.0000
  O   O5        1.0  0.6079135993495584  0.31438572984188795  0.3995151692070067  1.0000
  O   O6        1.0  0.05021455138921738  0.26296195574104786  0.011638465337455273  1.0000
  O   O7        1.0  0.7844639548566192  0.6091613717144355  0.18852669035550207  1.0000
  O   O8        1.0  0.9378801175625995  0.8750242665410042  0.38419730914756656  1.0000
data_image122
_chemical_formula_structural       Cs4H4S4O8
_chemical_formula_sum              "Cs4 H4 S4 O8"
_cell_length_a       5.817371
_cell_length_b       6.411326074356613
_cell_length_c       12.038703921785974
_cell_angle_alpha    93.7344795294116
_cell_angle_beta     90.0
_cell_angle_gamma    116.97998093780937

_space_group_name_H-M_alt    "P 1"
_space_group_IT_number       1

loop_
  _space_group_symop_operation_xyz
  'x, y, z'

loop_
  _atom_site_type_symbol
  _atom_site_label
  _atom_site_symmetry_multiplicity
  _atom_site_fract_x
  _atom_site_fract_y
  _atom_site_fract_z
  _atom_site_occupancy
  Cs  Cs1       1.0  0.5241242796182632  0.9646447990089655  0.09860052913427353  1.0000
  Cs  Cs2       1.0  0.29698679596185684  0.8917485913261771  0.4381834324449301  1.0000
  Cs  Cs3       1.0  0.5860718712210655  0.37264708150178194  0.47674184292554855  1.0000
  Cs  Cs4       1.0  0.16048958152532578  0.7797752618789673  0.7787173204123974  1.0000
  H   H1        1.0  0.15435689687728882  0.2465404011309147  0.04940821975469589  1.0000
  H   H2        1.0  0.5323828496038914  0.1178385317325592  0.3677912075072527  1.0000
  H   H3        1.0  0.3656605929136276  0.7592271864414215  0.21017012000083923  1.0000
  H   H4        1.0  0.991024911403656  0.4968067705631256  0.6371763683855534  1.0000
  S   S1        1.0  0.7096154093742371  0.936775129288435  0.652488961815834  1.0000
  S   S2        1.0  0.03176771104335785  0.7992492616176605  0.8564534597098827  1.0000
  S   S3        1.0  0.8963652849197388  0.40611320082098246  0.45979592204093933  1.0000
  S   S4        1.0  0.19412924349308014  0.9697449952363968  0.6333201378583908  1.0000
  O   O1        1.0  0.0029227379709482193  0.9839726760983467  0.9835262284614146  1.0000
  O   O2        1.0  0.43695781007409096  0.06012836471199989  0.36339103104546666  1.0000
  O   O3        1.0  0.9072544947266579  0.40593647211790085  0.2854104768484831  1.0000
  O   O4        1.0  0.43807388632558286  0.8263574170414358  0.1621171033475548  1.0000
  O   O5        1.0  0.7054956092615612  0.8478373540565372  0.6283601438626647  1.0000
  O   O6        1.0  0.27396344020962715  0.38401868380606174  0.4331025118008256  1.0000
  O   O7        1.0  0.6355096474289894  0.04700763418804854  0.15578881418332458  1.0000
  O   O8        1.0  0.5242363138240762  0.6853350293822587  0.46714566880837083  1.0000
data_image123
_chemical_formula_structural       Cs4H4S4O8
_chemical_formula_sum              "Cs4 H4 S4 O8"
_cell_length_a       5.817371
_cell_length_b       6.411326074356613
_cell_length_c       12.038703921785974
_cell_angle_alpha    93.7344795294116
_cell_angle_beta     90.0
_cell_angle_gamma    116.97998093780937

_space_group_name_H-M_alt    "P 1"
_space_group_IT_number       1

loop_
  _space_group_symop_operation_xyz
  'x, y, z'

loop_
  _atom_site_type_symbol
  _atom_site_label
  _atom_site_symmetry_multiplicity
  _atom_site_fract_x
  _atom_site_fract_y
  _atom_site_fract_z
  _atom_site_occupancy
  Cs  Cs1       1.0  0.2008008360862732  0.676591532304883  0.9669126309454441  1.0000
  Cs  Cs2       1.0  0.23115559667348862  0.24521865975111723  0.5067657581530511  1.0000
  Cs  Cs3       1.0  0.339005783200264  0.5892575057223439  0.7035453002899885  1.0000
  Cs  Cs4       1.0  0.6669882610440254  0.42464767023921013  0.9202704485505819  1.0000
  H   H1        1.0  0.039260536432266235  0.023346934467554092  0.3318053111433983  1.0000
  H   H2        1.0  0.9175040014088154  0.19021561369299889  0.7574784737080336  1.0000
  H   H3        1.0  0.7121970802545547  0.5284771919250488  0.5704629123210907  1.0000
  H   H4        1.0  0.01524662971496582  0.7108483612537384  0.6169100068509579  1.0000
  S   S1        1.0  0.2981813848018646  0.8299822025001049  0.5696461126208305  1.0000
  S   S2        1.0  0.9896460175514221  0.22944298386573792  0.551478635519743  1.0000
  S   S3        1.0  0.5376880913972855  0.22415748331695795  0.02539403736591339  1.0000
  S   S4        1.0  0.5850736498832703  0.6606270968914032  0.1389845311641693  1.0000
  O   O1        1.0  0.20497657312080264  0.4687802270054817  0.03712136019021273  1.0000
  O   O2        1.0  0.13141689263284206  0.8710104841738939  0.32675206381827593  1.0000
  O   O3        1.0  0.3493147538974881  0.34777113050222397  0.1496848613023758  1.0000
  O   O4        1.0  0.07842428982257843  0.9876107743475586  0.4315965725108981  1.0000
  O   O5        1.0  0.5496729342848994  0.9018094884231687  0.3248309697955847  1.0000
  O   O6        1.0  0.21574904769659042  0.0459193903952837  0.954806627240032  1.0000
  O   O7        1.0  0.2354581484105438  0.5315887643955648  0.2722184465455939  1.0000
  O   O8        1.0  0.6310691371327266  0.396953497081995  0.05390038341283798  1.0000
data_image124
_chemical_formula_structural       Cs4H4S4O8
_chemical_formula_sum              "Cs4 H4 S4 O8"
_cell_length_a       5.817371
_cell_length_b       6.411326074356613
_cell_length_c       12.038703921785974
_cell_angle_alpha    93.7344795294116
_cell_angle_beta     90.0
_cell_angle_gamma    116.97998093780937

_space_group_name_H-M_alt    "P 1"
_space_group_IT_number       1

loop_
  _space_group_symop_operation_xyz
  'x, y, z'

loop_
  _atom_site_type_symbol
  _atom_site_label
  _atom_site_symmetry_multiplicity
  _atom_site_fract_x
  _atom_site_fract_y
  _atom_site_fract_z
  _atom_site_occupancy
  Cs  Cs1       1.0  0.5540648922324181  0.8323914334177971  0.8954859226942062  1.0000
  Cs  Cs2       1.0  0.7245165798813105  0.7651314749382436  0.2020657565444708  1.0000
  Cs  Cs3       1.0  0.48455020785331726  0.3232970302924514  0.18607575399801135  1.0000
  Cs  Cs4       1.0  0.08012516051530838  0.16722922027111053  0.505834711715579  1.0000
  H   H1        1.0  0.9775530248880386  0.03714146837592125  0.7258406654000282  1.0000
  H   H2        1.0  0.8141227327287197  0.6499743536114693  0.28854026459157467  1.0000
  H   H3        1.0  0.34760789573192596  0.8419500589370728  0.07704117894172668  1.0000
  H   H4        1.0  0.9046478271484375  0.6153265982866287  0.7108270563185215  1.0000
  S   S1        1.0  0.5059803128242493  0.27554577589035034  0.8942403756082058  1.0000
  S   S2        1.0  0.7611190676689148  0.7825198471546173  0.9358121603727341  1.0000
  S   S3        1.0  0.5330783724784851  0.8569692969322205  0.7434427589178085  1.0000
  S   S4        1.0  0.8078504800796509  0.7915489077568054  0.6510548293590546  1.0000
  O   O1        1.0  0.49509903497528285  0.05372881703078747  0.11171984393149614  1.0000
  O   O2        1.0  0.7041503963992  0.6665055379271507  0.18359729961957783  1.0000
  O   O3        1.0  0.6610521553084254  0.602324441075325  0.6961081009358168  1.0000
  O   O4        1.0  0.3927871242631227  0.9637219980359077  0.889653142541647  1.0000
  O   O5        1.0  0.8999868280952796  0.40836190339177847  0.7741249073296785  1.0000
  O   O6        1.0  0.027309320867061615  0.9121032655239105  0.099633754696697  1.0000
  O   O7        1.0  0.4106398185249418  0.8559838216751814  0.13280275094803073  1.0000
  O   O8        1.0  0.2993589686229825  0.5533549832180142  0.4188910471275449  1.0000
data_image125
_chemical_formula_structural       Cs4H4S4O8
_chemical_formula_sum              "Cs4 H4 S4 O8"
_cell_length_a       5.817371
_cell_length_b       6.411326074356613
_cell_length_c       12.038703921785974
_cell_angle_alpha    93.7344795294116
_cell_angle_beta     90.0
_cell_angle_gamma    116.97998093780937

_space_group_name_H-M_alt    "P 1"
_space_group_IT_number       1

loop_
  _space_group_symop_operation_xyz
  'x, y, z'

loop_
  _atom_site_type_symbol
  _atom_site_label
  _atom_site_symmetry_multiplicity
  _atom_site_fract_x
  _atom_site_fract_y
  _atom_site_fract_z
  _atom_site_occupancy
  Cs  Cs1       1.0  0.3424941413104534  0.6525257714092731  0.7188550308346748  1.0000
  Cs  Cs2       1.0  0.8444142304360867  0.013095992617309093  0.8640655078925192  1.0000
  Cs  Cs3       1.0  0.426106758415699  0.006081818602979183  0.7723160074092448  1.0000
  Cs  Cs4       1.0  0.3211367204785347  0.4208798408508301  0.2984276358038187  1.0000
  H   H1        1.0  0.19516706466674805  0.627465009689331  0.6577292382717133  1.0000
  H   H2        1.0  0.15609583258628845  0.5166534669697285  0.4545817282050848  1.0000
  H   H3        1.0  0.18500874936580658  0.6594216227531433  0.5614210963249207  1.0000
  H   H4        1.0  0.8932258486747742  0.6945673376321793  0.34455251321196556  1.0000
  S   S1        1.0  0.1078227162361145  0.1324843391776085  0.5761345736682415  1.0000
  S   S2        1.0  0.7365721166133881  0.24261954426765442  0.5062597207725048  1.0000
  S   S3        1.0  0.9541610777378082  0.03311879839748144  0.1345578208565712  1.0000
  S   S4        1.0  0.30487609654664993  0.26332224905490875  0.002250194549560547  1.0000
  O   O1        1.0  0.02070966881001368  0.11142935045063496  0.1617990480735898  1.0000
  O   O2        1.0  0.5210618237033486  0.2997673712670803  0.2029446529923007  1.0000
  O   O3        1.0  0.16800457704812288  0.8067979663610458  0.7798049040138721  1.0000
  O   O4        1.0  0.15736417449079454  0.7372109624557197  0.16782736545428634  1.0000
  O   O5        1.0  0.35574803891358897  0.5670910365879536  0.5267484581563622  1.0000
  O   O6        1.0  0.7908308692276478  0.3988146111369133  0.14502140507102013  1.0000
  O   O7        1.0  0.9017349728383124  0.5440655420534313  0.7395506426255452  1.0000
  O   O8        1.0  0.307252109516412  0.92321852222085  0.9993590302765369  1.0000
data_image126
_chemical_formula_structural       Cs4H4S4O8
_chemical_formula_sum              "Cs4 H4 S4 O8"
_cell_length_a       5.817371
_cell_length_b       6.411326074356613
_cell_length_c       12.038703921785974
_cell_angle_alpha    93.7344795294116
_cell_angle_beta     90.0
_cell_angle_gamma    116.97998093780937

_space_group_name_H-M_alt    "P 1"
_space_group_IT_number       1

loop_
  _space_group_symop_operation_xyz
  'x, y, z'

loop_
  _atom_site_type_symbol
  _atom_site_label
  _atom_site_symmetry_multiplicity
  _atom_site_fract_x
  _atom_site_fract_y
  _atom_site_fract_z
  _atom_site_occupancy
  Cs  Cs1       1.0  0.8578345440328121  0.8542915731668472  0.7476979307830334  1.0000
  Cs  Cs2       1.0  0.92552206851542  0.046257095877081156  0.6921294033527374  1.0000
  Cs  Cs3       1.0  0.954397939145565  0.6675407094880939  0.7584192880894989  1.0000
  Cs  Cs4       1.0  0.2798512354493141  0.7480387315154076  0.4852227736264467  1.0000
  H   H1        1.0  0.9597723335027695  0.27353593707084656  0.19502532482147217  1.0000
  H   H2        1.0  0.9328173696994781  0.007896773517131805  0.8164696209132671  1.0000
  H   H3        1.0  0.9727855622768402  0.4874210059642792  0.8310609459877014  1.0000
  H   H4        1.0  0.7155461609363556  0.058066755533218384  0.6641987599432468  1.0000
  S   S1        1.0  0.11913782358169556  0.06484105810523033  0.5529604591429234  1.0000
  S   S2        1.0  0.07000350952148438  0.7677878737449646  0.8240172937512398  1.0000
  S   S3        1.0  0.8667833283543587  0.8589766696095467  0.7982898876070976  1.0000
  S   S4        1.0  0.8497627824544907  0.2511755973100662  0.38763706386089325  1.0000
  O   O1        1.0  0.527001830865629  0.3543462548404932  0.2086339951492846  1.0000
  O   O2        1.0  0.4106633560732007  0.12749514915049076  0.44752205815166235  1.0000
  O   O3        1.0  0.4628055039793253  0.04546104371547699  0.7374704703688622  1.0000
  O   O4        1.0  0.16323276539333165  0.34921999415382743  0.1382085329387337  1.0000
  O   O5        1.0  0.4453161613200791  0.41196743678301573  0.3212434248998761  1.0000
  O   O6        1.0  0.16956858709454536  0.6925914529711008  0.63592200120911  1.0000
  O   O7        1.0  0.6434506268706173  0.24075019150041044  0.8006180290103657  1.0000
  O   O8        1.0  0.43559473380446434  0.9188300045207143  0.9273697333410382  1.0000
data_image127
_chemical_formula_structural       Cs4H4S4O8
_chemical_formula_sum              "Cs4 H4 S4 O8"
_cell_length_a       5.817371
_cell_length_b       6.411326074356613
_cell_length_c       12.038703921785974
_cell_angle_alpha    93.7344795294116
_cell_angle_beta     90.0
_cell_angle_gamma    116.97998093780937

_space_group_name_H-M_alt    "P 1"
_space_group_IT_number       1

loop_
  _space_group_symop_operation_xyz
  'x, y, z'

loop_
  _atom_site_type_symbol
  _atom_site_label
  _atom_site_symmetry_multiplicity
  _atom_site_fract_x
  _atom_site_fract_y
  _atom_site_fract_z
  _atom_site_occupancy
  Cs  Cs1       1.0  0.30874262750148773  0.11387171223759651  0.49070851877331734  1.0000
  Cs  Cs2       1.0  0.858144972473383  0.13781328639015555  0.686403838917613  1.0000
  Cs  Cs3       1.0  0.9551601707935333  0.7718629017472267  0.9015901242382824  1.0000
  Cs  Cs4       1.0  0.6077049747109413  0.12892619892954826  0.9736877977848053  1.0000
  H   H1        1.0  0.6092841178178787  0.9105478823184967  0.21002471446990967  1.0000
  H   H2        1.0  0.44215483218431473  0.8425880186259747  0.7608799189329147  1.0000
  H   H3        1.0  0.013052195310592651  0.06543806195259094  0.9268294274806976  1.0000
  H   H4        1.0  0.2991599142551422  0.2267647236585617  0.10579217970371246  1.0000
  S   S1        1.0  0.5377776920795441  0.34015046432614326  0.7819834463298321  1.0000
  S   S2        1.0  0.7642588689923286  0.9731922745704651  0.8062474504113197  1.0000
  S   S3        1.0  0.28743582451716065  0.2989722639322281  0.453713059425354  1.0000
  S   S4        1.0  0.1763986051082611  0.5407786965370178  0.09122520685195923  1.0000
  O   O1        1.0  0.4853405330795795  0.26812163926661015  0.3943135142326355  1.0000
  O   O2        1.0  0.5306839090771973  0.4905140958726406  0.9639618739020079  1.0000
  O   O3        1.0  0.6863620337098837  0.19122963398694992  0.5068589337170124  1.0000
  O   O4        1.0  0.33214255538769066  0.9822389483451843  0.06989842467010021  1.0000
  O   O5        1.0  0.5818192503065802  0.23027758300304413  0.8034721480216831  1.0000
  O   O6        1.0  0.007999960333108902  0.44905704259872437  0.6462700716219842  1.0000
  O   O7        1.0  0.9113365162629634  0.04010466346517205  0.03972513525513932  1.0000
  O   O8        1.0  0.15334318717941642  0.002209855243563652  0.6230102661065757  1.0000
data_image128
_chemical_formula_structural       Cs4H4S4O8
_chemical_formula_sum              "Cs4 H4 S4 O8"
_cell_length_a       5.817371
_cell_length_b       6.411326074356613
_cell_length_c       12.038703921785974
_cell_angle_alpha    93.7344795294116
_cell_angle_beta     90.0
_cell_angle_gamma    116.97998093780937

_space_group_name_H-M_alt    "P 1"
_space_group_IT_number       1

loop_
  _space_group_symop_operation_xyz
  'x, y, z'

loop_
  _atom_site_type_symbol
  _atom_site_label
  _atom_site_symmetry_multiplicity
  _atom_site_fract_x
  _atom_site_fract_y
  _atom_site_fract_z
  _atom_site_occupancy
  Cs  Cs1       1.0  0.11724106222391129  0.6516103520989418  0.4053660910576582  1.0000
  Cs  Cs2       1.0  0.6938951760530472  0.8231548336334527  0.4684048956260085  1.0000
  Cs  Cs3       1.0  0.759525004774332  0.26871009916067123  0.5223493329249322  1.0000
  Cs  Cs4       1.0  0.23892870545387268  0.40293029695749283  0.8333553094416857  1.0000
  H   H1        1.0  0.9659871608018875  0.8209020495414734  0.831369012594223  1.0000
  H   H2        1.0  0.40455176681280136  0.2476624771952629  0.2870899382978678  1.0000
  H   H3        1.0  0.18076476454734802  0.4086137115955353  0.7737070620059967  1.0000
  H   H4        1.0  0.4943754971027374  0.15615448355674744  0.8708211705088615  1.0000
  S   S1        1.0  0.06684720516204834  0.28294008411467075  0.7451436705887318  1.0000
  S   S2        1.0  0.30788830667734146  0.8723037540912628  0.8440098688006401  1.0000
  S   S3        1.0  0.6545763136819005  0.9004461467266083  0.5602200552821159  1.0000
  S   S4        1.0  0.6648936346173286  0.38601095974445343  0.19645263254642487  1.0000
  O   O1        1.0  0.8175957112107426  0.30672709457576275  0.849053141195327  1.0000
  O   O2        1.0  0.31443244218826294  0.6783932261168957  0.6554751980584115  1.0000
  O   O3        1.0  0.1838146597146988  0.46997809410095215  0.7068201955407858  1.0000
  O   O4        1.0  0.15970248740632087  0.014210452791303396  0.20918830879963934  1.0000
  O   O5        1.0  0.7292137640761212  0.4220593199133873  0.9606692700181156  1.0000
  O   O6        1.0  0.7234368622303009  0.08799062110483646  0.279421528801322  1.0000
  O   O7        1.0  0.3979305340908468  0.3417292234953493  0.36851475486764684  1.0000
  O   O8        1.0  0.8067817650735378  0.6216183379292488  0.49150190968066454  1.0000
data_image129
_chemical_formula_structural       Cs4H4S4O8
_chemical_formula_sum              "Cs4 H4 S4 O8"
_cell_length_a       5.817371
_cell_length_b       6.411326074356613
_cell_length_c       12.038703921785974
_cell_angle_alpha    93.7344795294116
_cell_angle_beta     90.0
_cell_angle_gamma    116.97998093780937

_space_group_name_H-M_alt    "P 1"
_space_group_IT_number       1

loop_
  _space_group_symop_operation_xyz
  'x, y, z'

loop_
  _atom_site_type_symbol
  _atom_site_label
  _atom_site_symmetry_multiplicity
  _atom_site_fract_x
  _atom_site_fract_y
  _atom_site_fract_z
  _atom_site_occupancy
  Cs  Cs1       1.0  0.4414878785610199  0.8297817744314671  0.6703686080873013  1.0000
  Cs  Cs2       1.0  0.4362970404326916  0.0912163583561778  0.17683152062818408  1.0000
  Cs  Cs3       1.0  0.8544404841959476  0.8780839201062918  0.4441963650751859  1.0000
  Cs  Cs4       1.0  0.5299682393670082  0.07292651385068893  0.24156125634908676  1.0000
  H   H1        1.0  0.5377399176359177  0.04957018792629242  0.09330189228057861  1.0000
  H   H2        1.0  0.947711568325758  0.9211098924279213  0.4488523192703724  1.0000
  H   H3        1.0  0.021145597100257874  0.07153052091598511  0.16494309902191162  1.0000
  H   H4        1.0  0.8354958295822144  0.3724577724933624  0.5490402020514011  1.0000
  S   S1        1.0  0.9025780260562897  0.873433637432754  0.061281196773052216  1.0000
  S   S2        1.0  0.9120998531579971  0.14598706364631653  0.9281194768846035  1.0000
  S   S3        1.0  0.2579595521092415  0.8109442517161369  0.23418768495321274  1.0000
  S   S4        1.0  0.9248773381114006  0.9710655510425568  0.6153780370950699  1.0000
  O   O1        1.0  0.7134414007887244  0.26834492944180965  0.7125764167867601  1.0000
  O   O2        1.0  0.2899755425751209  0.954420150257647  0.10776568879373372  1.0000
  O   O3        1.0  0.2939750989899039  0.01716269552707672  0.8199883885681629  1.0000
  O   O4        1.0  0.1475740052992478  0.8920091611798853  0.02573523437604308  1.0000
  O   O5        1.0  0.9728193683549762  0.5045764809474349  0.8358327036257833  1.0000
  O   O6        1.0  0.004918720573186874  0.21182533912360668  0.43059950321912766  1.0000
  O   O7        1.0  0.10729798953980207  0.45504361274652183  0.6674595492659137  1.0000
  O   O8        1.0  0.9974894528277218  0.48573724180459976  0.26598022039979696  1.0000
data_image130
_chemical_formula_structural       Cs4H4S4O8
_chemical_formula_sum              "Cs4 H4 S4 O8"
_cell_length_a       5.817371
_cell_length_b       6.411326074356613
_cell_length_c       12.038703921785974
_cell_angle_alpha    93.7344795294116
_cell_angle_beta     90.0
_cell_angle_gamma    116.97998093780937

_space_group_name_H-M_alt    "P 1"
_space_group_IT_number       1

loop_
  _space_group_symop_operation_xyz
  'x, y, z'

loop_
  _atom_site_type_symbol
  _atom_site_label
  _atom_site_symmetry_multiplicity
  _atom_site_fract_x
  _atom_site_fract_y
  _atom_site_fract_z
  _atom_site_occupancy
  Cs  Cs1       1.0  0.5626557879149914  0.7178143560886383  0.7141539175063372  1.0000
  Cs  Cs2       1.0  0.24068310670554638  0.1942017087712884  0.22996324533596635  1.0000
  Cs  Cs3       1.0  0.620416484773159  0.02665785886347294  0.9847550678532571  1.0000
  Cs  Cs4       1.0  0.4878710135817528  0.8119864538311958  0.4030681811273098  1.0000
  H   H1        1.0  0.6798712015151978  0.8052355200052261  0.366699755191803  1.0000
  H   H2        1.0  0.2361016608774662  0.5100440867245197  0.437958549708128  1.0000
  H   H3        1.0  0.9348322302103043  0.5725479125976562  0.23008185625076294  1.0000
  H   H4        1.0  0.40688908100128174  0.4180899113416672  0.12949806824326515  1.0000
  S   S1        1.0  0.09818145632743835  0.992768460419029  0.6824219077825546  1.0000
  S   S2        1.0  0.6505945697426796  0.98717200756073  0.44998516887426376  1.0000
  S   S3        1.0  0.43844051379710436  0.5433194115757942  0.039706386625766754  1.0000
  S   S4        1.0  0.42941298335790634  0.9736640453338623  0.31601661443710327  1.0000
  O   O1        1.0  0.7462544194422662  0.00917121209204197  0.4346220591105521  1.0000
  O   O2        1.0  0.6248805637005717  0.011179854162037373  0.8621589683461934  1.0000
  O   O3        1.0  0.015601661056280136  0.44359344989061356  0.9259617142379284  1.0000
  O   O4        1.0  0.07631564873736352  0.028219879139214754  0.9268648335710168  1.0000
  O   O5        1.0  0.09700004861224443  0.2816372364759445  0.506713101407513  1.0000
  O   O6        1.0  0.6479977965354919  0.2760043479502201  0.421024133451283  1.0000
  O   O7        1.0  0.48978232638910413  0.8337485487572849  0.42120640484790783  1.0000
  O   O8        1.0  0.5282324478030205  0.13570976071059704  0.1914108907803893  1.0000
data_image131
_chemical_formula_structural       Cs4H4S4O8
_chemical_formula_sum              "Cs4 H4 S4 O8"
_cell_length_a       5.817371
_cell_length_b       6.411326074356613
_cell_length_c       12.038703921785974
_cell_angle_alpha    93.7344795294116
_cell_angle_beta     90.0
_cell_angle_gamma    116.97998093780937

_space_group_name_H-M_alt    "P 1"
_space_group_IT_number       1

loop_
  _space_group_symop_operation_xyz
  'x, y, z'

loop_
  _atom_site_type_symbol
  _atom_site_label
  _atom_site_symmetry_multiplicity
  _atom_site_fract_x
  _atom_site_fract_y
  _atom_site_fract_z
  _atom_site_occupancy
  Cs  Cs1       1.0  0.9897478073835373  0.24110403656959534  0.986930426210165  1.0000
  Cs  Cs2       1.0  0.288482453674078  0.15967841679230332  0.4850496449507773  1.0000
  Cs  Cs3       1.0  0.2713285908102989  0.8751541320234537  0.9870730793336406  1.0000
  Cs  Cs4       1.0  0.30786731094121933  0.31843630969524384  0.29780833423137665  1.0000
  H   H1        1.0  0.8885007202625275  0.11230583488941193  0.031147927045822144  1.0000
  H   H2        1.0  0.8308679275214672  0.9130345545709133  0.20711779035627842  1.0000
  H   H3        1.0  0.846039667725563  0.8727138638496399  0.0026895105838775635  1.0000
  H   H4        1.0  0.7814297080039978  0.17022758722305298  0.6806267723441124  1.0000
  S   S1        1.0  0.5564277172088623  0.2998001645319164  0.39998701214790344  1.0000
  S   S2        1.0  0.4588097259402275  0.6378149390220642  0.8093066290020943  1.0000
  S   S3        1.0  0.25372942071408033  0.20693852752447128  0.576815091073513  1.0000
  S   S4        1.0  0.22953341901302338  0.045476868748664856  0.3337467908859253  1.0000
  O   O1        1.0  0.6648384863510728  0.3806704953312874  0.7139795562252402  1.0000
  O   O2        1.0  0.1916796532459557  0.7161004161462188  0.05587173067033291  1.0000
  O   O3        1.0  0.5158799989148974  0.11755985021591187  0.5400160830467939  1.0000
  O   O4        1.0  0.003960955771617591  0.4918962374795228  0.8839778348337859  1.0000
  O   O5        1.0  0.06801996380090714  0.6586480243131518  0.21761491149663925  1.0000
  O   O6        1.0  0.6062050499022007  0.7776802182197571  0.3459861692972481  1.0000
  O   O7        1.0  0.18317059567198157  0.2543818852864206  0.714260796783492  1.0000
  O   O8        1.0  0.9668593620881438  0.6257369229570031  0.6813186537474394  1.0000
data_image132
_chemical_formula_structural       Cs4H4S4O8
_chemical_formula_sum              "Cs4 H4 S4 O8"
_cell_length_a       5.817371
_cell_length_b       6.411326074356613
_cell_length_c       12.038703921785974
_cell_angle_alpha    93.7344795294116
_cell_angle_beta     90.0
_cell_angle_gamma    116.97998093780937

_space_group_name_H-M_alt    "P 1"
_space_group_IT_number       1

loop_
  _space_group_symop_operation_xyz
  'x, y, z'

loop_
  _atom_site_type_symbol
  _atom_site_label
  _atom_site_symmetry_multiplicity
  _atom_site_fract_x
  _atom_site_fract_y
  _atom_site_fract_z
  _atom_site_occupancy
  Cs  Cs1       1.0  0.018778320401906967  0.6127302460372448  0.22608402371406555  1.0000
  Cs  Cs2       1.0  0.1648057885468006  0.7930712192319334  0.9698391589336097  1.0000
  Cs  Cs3       1.0  0.7263389267027378  0.4030940216034651  0.9923326964490116  1.0000
  Cs  Cs4       1.0  0.1471395194530487  0.5420003198087215  0.9131943788379431  1.0000
  H   H1        1.0  0.017000362277030945  0.9595394730567932  0.7879525721073151  1.0000
  H   H2        1.0  0.346260491758585  0.43909765034914017  0.16778026707470417  1.0000
  H   H3        1.0  0.2827751189470291  0.38815370202064514  0.6450546383857727  1.0000
  H   H4        1.0  0.6268447935581207  0.5312942713499069  0.10899697802960873  1.0000
  S   S1        1.0  0.4523479640483856  0.7505244030617177  0.05919815972447395  1.0000
  S   S2        1.0  0.02744363248348236  0.6877747476100922  0.7973148934543133  1.0000
  S   S3        1.0  0.6416553435847163  0.21632106602191925  0.40222789347171783  1.0000
  S   S4        1.0  0.061292387545108795  0.7512644678354263  0.9929744899272919  1.0000
  O   O1        1.0  0.7083231317810714  0.6655809246003628  0.14651625230908394  1.0000
  O   O2        1.0  0.8647229913622141  0.31218553707003593  0.13927678554318845  1.0000
  O   O3        1.0  0.8316690484061837  0.6871578767895699  0.03451910428702831  1.0000
  O   O4        1.0  0.8068262044107541  0.4703157339245081  0.5680189882405102  1.0000
  O   O5        1.0  0.14174321189057082  0.788541728630662  0.881269539706409  1.0000
  O   O6        1.0  0.2847433537244797  0.25374741666018963  0.6559537965804338  1.0000
  O   O7        1.0  0.3487731143832207  0.10265282937325537  0.2985657802782953  1.0000
  O   O8        1.0  0.08733676560223103  0.86552803684026  0.0941068259999156  1.0000
data_image133
_chemical_formula_structural       Cs4H4S4O8
_chemical_formula_sum              "Cs4 H4 S4 O8"
_cell_length_a       5.817371
_cell_length_b       6.411326074356613
_cell_length_c       12.038703921785974
_cell_angle_alpha    93.7344795294116
_cell_angle_beta     90.0
_cell_angle_gamma    116.97998093780937

_space_group_name_H-M_alt    "P 1"
_space_group_IT_number       1

loop_
  _space_group_symop_operation_xyz
  'x, y, z'

loop_
  _atom_site_type_symbol
  _atom_site_label
  _atom_site_symmetry_multiplicity
  _atom_site_fract_x
  _atom_site_fract_y
  _atom_site_fract_z
  _atom_site_occupancy
  Cs  Cs1       1.0  0.8426001183688641  0.3001560680568218  0.09155287221074104  1.0000
  Cs  Cs2       1.0  0.5479312278330326  0.3564542238600552  0.35695434687659144  1.0000
  Cs  Cs3       1.0  0.5234482698142529  0.4716491959989071  0.4517478208290413  1.0000
  Cs  Cs4       1.0  0.5214783102273941  0.08649655804038048  0.9376630671322346  1.0000
  H   H1        1.0  0.5402780771255493  0.8759825527667999  0.8776002824306488  1.0000
  H   H2        1.0  0.591487105935812  0.2791384309530258  0.787454716861248  1.0000
  H   H3        1.0  0.04103870689868927  0.9973706901073456  0.42969033122062683  1.0000
  H   H4        1.0  0.488290473818779  0.5696326494216919  0.22273949906229973  1.0000
  S   S1        1.0  0.5006543397903442  0.5828435395378619  0.899914376437664  1.0000
  S   S2        1.0  0.45169929414987564  0.30734336376190186  0.39899086207151413  1.0000
  S   S3        1.0  0.17458901833742857  0.4556676149368286  0.27805396914482117  1.0000
  S   S4        1.0  0.49803441762924194  0.9060247242450714  0.6481325775384903  1.0000
  O   O1        1.0  0.5482193015050143  0.9744440726935863  0.09608794515952468  1.0000
  O   O2        1.0  0.8494885459076613  0.9130938053131104  0.43338509020395577  1.0000
  O   O3        1.0  0.0903587881475687  0.6203635036945343  0.06796626187860966  1.0000
  O   O4        1.0  0.5693418023874983  0.7879431506153196  0.18285334249958396  1.0000
  O   O5        1.0  0.13942574674729258  0.5273494301363826  0.11443574726581573  1.0000
  O   O6        1.0  0.19594914466142654  0.6757930405437946  0.6118025593459606  1.0000
  O   O7        1.0  0.45167289255186915  0.7604401186108589  0.7124244102742523  1.0000
  O   O8        1.0  0.1460781954228878  0.5137233259156346  0.9359208908863366  1.0000
data_image134
_chemical_formula_structural       Cs4H4S4O8
_chemical_formula_sum              "Cs4 H4 S4 O8"
_cell_length_a       5.817371
_cell_length_b       6.411326074356613
_cell_length_c       12.038703921785974
_cell_angle_alpha    93.7344795294116
_cell_angle_beta     90.0
_cell_angle_gamma    116.97998093780937

_space_group_name_H-M_alt    "P 1"
_space_group_IT_number       1

loop_
  _space_group_symop_operation_xyz
  'x, y, z'

loop_
  _atom_site_type_symbol
  _atom_site_label
  _atom_site_symmetry_multiplicity
  _atom_site_fract_x
  _atom_site_fract_y
  _atom_site_fract_z
  _atom_site_occupancy
  Cs  Cs1       1.0  0.8044744804501534  0.9220693744719028  0.19113276526331902  1.0000
  Cs  Cs2       1.0  0.5312267150729895  0.20339536806568503  0.03598776692524552  1.0000
  Cs  Cs3       1.0  0.849586296826601  0.38280104473233223  0.8013816569000483  1.0000
  Cs  Cs4       1.0  0.570547565817833  0.0008933581411838531  0.5863090716302395  1.0000
  H   H1        1.0  0.5244229584932327  0.5606609582901001  0.4482647776603699  1.0000
  H   H2        1.0  0.7996462173759937  0.5568777471780777  0.7104357201606035  1.0000
  H   H3        1.0  0.6649816483259201  0.03799855709075928  0.15700846910476685  1.0000
  H   H4        1.0  0.7277791947126389  0.893416665494442  0.10400343127548695  1.0000
  S   S1        1.0  0.3890588879585266  0.7085879249498248  0.3551224581897259  1.0000
  S   S2        1.0  0.38971925526857376  0.4173230826854706  0.03579636290669441  1.0000
  S   S3        1.0  0.7135991239920259  0.3151672035455704  0.17330265045166016  1.0000
  S   S4        1.0  0.47477493435144424  0.8565147221088409  0.07578186690807343  1.0000
  O   O1        1.0  0.7384111813735217  0.6309119313955307  0.23196214903146029  1.0000
  O   O2        1.0  0.8603454036638141  0.8046516664326191  0.787867087405175  1.0000
  O   O3        1.0  0.4174776906147599  0.8077501133084297  0.3496935423463583  1.0000
  O   O4        1.0  0.8223893457325175  0.47882369067519903  0.5586155387572944  1.0000
  O   O5        1.0  0.7452940826769918  0.4610835136845708  0.9886937029659748  1.0000
  O   O6        1.0  0.610818512737751  0.7943558841943741  0.008396652061492205  1.0000
  O   O7        1.0  0.8654291406273842  0.060266656801104546  0.9214024357497692  1.0000
  O   O8        1.0  0.7764165359549224  0.17657258454710245  0.0822901651263237  1.0000
data_image135
_chemical_formula_structural       Cs4H4S4O8
_chemical_formula_sum              "Cs4 H4 S4 O8"
_cell_length_a       5.817371
_cell_length_b       6.411326074356613
_cell_length_c       12.038703921785974
_cell_angle_alpha    93.7344795294116
_cell_angle_beta     90.0
_cell_angle_gamma    116.97998093780937

_space_group_name_H-M_alt    "P 1"
_space_group_IT_number       1

loop_
  _space_group_symop_operation_xyz
  'x, y, z'

loop_
  _atom_site_type_symbol
  _atom_site_label
  _atom_site_symmetry_multiplicity
  _atom_site_fract_x
  _atom_site_fract_y
  _atom_site_fract_z
  _atom_site_occupancy
  Cs  Cs1       1.0  0.8495132587850094  0.6793537847697735  0.6662746649235487  1.0000
  Cs  Cs2       1.0  0.28415424935519695  0.651389364618808  0.34996537026017904  1.0000
  Cs  Cs3       1.0  0.042608290910720825  0.11263708770275116  0.037083646515384316  1.0000
  Cs  Cs4       1.0  0.7135504111647606  0.025392655283212662  0.7265981324017048  1.0000
  H   H1        1.0  0.8199245631694794  0.332649290561676  0.6819149255752563  1.0000
  H   H2        1.0  0.14773209393024445  0.8434637263417244  0.004755603149533272  1.0000
  H   H3        1.0  0.2179708629846573  0.4757240414619446  0.7864673435688019  1.0000
  H   H4        1.0  0.7150142639875412  0.6406455785036087  0.9379938822239637  1.0000
  S   S1        1.0  0.39627647399902344  0.785175341530703  0.7075274027884007  1.0000
  S   S2        1.0  0.5700332969427109  0.8925049304962158  0.7645991630852222  1.0000
  S   S3        1.0  0.7506993878632784  0.42496519535779953  0.28358469903469086  1.0000
  S   S4        1.0  0.6406814530491829  0.17579908668994904  0.39455072581768036  1.0000
  O   O1        1.0  0.4398873532190919  0.52269147336483  0.2224653037264943  1.0000
  O   O2        1.0  0.7196253838483244  0.044602762907743454  0.7523949146270752  1.0000
  O   O3        1.0  0.04371169302612543  0.19571898132562637  0.6137714348733425  1.0000
  O   O4        1.0  0.012185362284071743  0.6165204697754234  0.481687517138198  1.0000
  O   O5        1.0  0.7392812727484852  0.8222769722342491  0.6347018119413406  1.0000
  O   O6        1.0  0.46850501745939255  0.1872340925037861  0.08640873990952969  1.0000
  O   O7        1.0  0.5874307327903807  0.566802523098886  0.4526869875844568  1.0000
  O   O8        1.0  0.1135791102424264  0.11940133944153786  0.10501432325690985  1.0000
data_image136
_chemical_formula_structural       Cs4H4S4O8
_chemical_formula_sum              "Cs4 H4 S4 O8"
_cell_length_a       5.817371
_cell_length_b       6.411326074356613
_cell_length_c       12.038703921785974
_cell_angle_alpha    93.7344795294116
_cell_angle_beta     90.0
_cell_angle_gamma    116.97998093780937

_space_group_name_H-M_alt    "P 1"
_space_group_IT_number       1

loop_
  _space_group_symop_operation_xyz
  'x, y, z'

loop_
  _atom_site_type_symbol
  _atom_site_label
  _atom_site_symmetry_multiplicity
  _atom_site_fract_x
  _atom_site_fract_y
  _atom_site_fract_z
  _atom_site_occupancy
  Cs  Cs1       1.0  0.08642786368727684  0.37780454009771347  0.42978980392217636  1.0000
  Cs  Cs2       1.0  0.8769053909927607  0.8402634430676699  0.7699915417470038  1.0000
  Cs  Cs3       1.0  0.2530016601085663  0.43330484814941883  0.1548614363418892  1.0000
  Cs  Cs4       1.0  0.49938081204891205  0.24994231760501862  0.6288857068866491  1.0000
  H   H1        1.0  0.49627164006233215  0.3967008739709854  0.20087239146232605  1.0000
  H   H2        1.0  0.4744933247566223  0.4213985279202461  0.9738131705671549  1.0000
  H   H3        1.0  0.3436409682035446  0.8617700934410095  0.5276395976543427  1.0000
  H   H4        1.0  0.4921845644712448  0.8714315444231033  0.62209852039814  1.0000
  S   S1        1.0  0.5517930686473846  0.6467449858319014  0.2817006967961788  1.0000
  S   S2        1.0  0.6699067652225494  0.5144287645816803  0.6864281445741653  1.0000
  S   S3        1.0  0.12386731430888176  0.8361247181892395  0.5257455483078957  1.0000
  S   S4        1.0  0.8411929905414581  0.38504065573215485  0.6075448840856552  1.0000
  O   O1        1.0  0.86261603445746  0.47460284270346165  0.08435498829931021  1.0000
  O   O2        1.0  0.9838117174804211  0.6778398808091879  0.23118280386552215  1.0000
  O   O3        1.0  0.2776055810973048  0.369814857840538  0.047964366152882576  1.0000
  O   O4        1.0  0.4520276034018025  0.6027315983083099  0.06757262512110174  1.0000
  O   O5        1.0  0.2503492821706459  0.9800438024103642  0.423313025617972  1.0000
  O   O6        1.0  0.5282647460699081  0.26164015755057335  0.5797546193934977  1.0000
  O   O7        1.0  0.487588610034436  0.5455979350954294  0.6339303727727383  1.0000
  O   O8        1.0  0.6130401082336903  0.3458903292194009  0.5732429707422853  1.0000
data_image137
_chemical_formula_structural       Cs4H4S4O8
_chemical_formula_sum              "Cs4 H4 S4 O8"
_cell_length_a       5.817371
_cell_length_b       6.411326074356613
_cell_length_c       12.038703921785974
_cell_angle_alpha    93.7344795294116
_cell_angle_beta     90.0
_cell_angle_gamma    116.97998093780937

_space_group_name_H-M_alt    "P 1"
_space_group_IT_number       1

loop_
  _space_group_symop_operation_xyz
  'x, y, z'

loop_
  _atom_site_type_symbol
  _atom_site_label
  _atom_site_symmetry_multiplicity
  _atom_site_fract_x
  _atom_site_fract_y
  _atom_site_fract_z
  _atom_site_occupancy
  Cs  Cs1       1.0  0.3483281061053276  0.01964704692363739  0.5797385517507792  1.0000
  Cs  Cs2       1.0  0.36872549541294575  0.24004587437957525  0.32042516581714153  1.0000
  Cs  Cs3       1.0  0.8888760432600975  0.7728842310607433  0.11803872068412602  1.0000
  Cs  Cs4       1.0  0.7845442444086075  0.06275054067373276  0.22505909390747547  1.0000
  H   H1        1.0  0.589772418141365  0.7168433368206024  0.4016706943511963  1.0000
  H   H2        1.0  0.6562769524753094  0.28411978483200073  0.4920496568083763  1.0000
  H   H3        1.0  0.8569394201040268  0.16524922847747803  0.3629327118396759  1.0000
  H   H4        1.0  0.12609729170799255  0.5352542027831078  0.4957183375954628  1.0000
  S   S1        1.0  0.31993600726127625  0.4773480931762606  0.8674535900354385  1.0000
  S   S2        1.0  0.5741702392697334  0.15953201055526733  0.7989638522267342  1.0000
  S   S3        1.0  0.4695233879610896  0.8061202093958855  0.9880992919206619  1.0000
  S   S4        1.0  0.8321386650204659  0.10348433256149292  0.46828724443912506  1.0000
  O   O1        1.0  0.677643814124167  0.3875509351491928  0.20656069740653038  1.0000
  O   O2        1.0  0.9609178835526109  0.697319258004427  0.21202103304676712  1.0000
  O   O3        1.0  0.8912975005805492  0.9533297494053841  0.9110447391867638  1.0000
  O   O4        1.0  0.051237610750831664  0.07850874168798327  0.9700666340067983  1.0000
  O   O5        1.0  0.17998746561352164  0.06374052446335554  0.3013523172121495  1.0000
  O   O6        1.0  0.963714100420475  0.4578333869576454  0.8947197874076664  1.0000
  O   O7        1.0  0.10284240543842316  0.9898510759230703  0.9570503502618521  1.0000
  O   O8        1.0  0.5023280805908144  0.7659486848860979  0.0587559062987566  1.0000
data_image138
_chemical_formula_structural       Cs4H4S4O8
_chemical_formula_sum              "Cs4 H4 S4 O8"
_cell_length_a       5.817371
_cell_length_b       6.411326074356613
_cell_length_c       12.038703921785974
_cell_angle_alpha    93.7344795294116
_cell_angle_beta     90.0
_cell_angle_gamma    116.97998093780937

_space_group_name_H-M_alt    "P 1"
_space_group_IT_number       1

loop_
  _space_group_symop_operation_xyz
  'x, y, z'

loop_
  _atom_site_type_symbol
  _atom_site_label
  _atom_site_symmetry_multiplicity
  _atom_site_fract_x
  _atom_site_fract_y
  _atom_site_fract_z
  _atom_site_occupancy
  Cs  Cs1       1.0  0.34889891743659973  0.7284666448831558  0.789684921503067  1.0000
  Cs  Cs2       1.0  0.09172278083860874  0.5030226334929466  0.38233161997050047  1.0000
  Cs  Cs3       1.0  0.016491614282131195  0.523042120039463  0.12459724221844226  1.0000
  Cs  Cs4       1.0  0.3060847818851471  0.9753929264843464  0.8586584478616714  1.0000
  H   H1        1.0  0.534111499786377  0.7009442448616028  0.7769549190998077  1.0000
  H   H2        1.0  0.8762106206268072  0.35891445726156235  0.4192948155105114  1.0000
  H   H3        1.0  0.4301183521747589  0.9881110489368439  0.09257090091705322  1.0000
  H   H4        1.0  0.5719916224479675  0.2831558436155319  0.24825410917401314  1.0000
  S   S1        1.0  0.8378684520721436  0.13141881488263607  0.9663090668618679  1.0000
  S   S2        1.0  0.15116754919290543  0.3779808580875397  0.345389012247324  1.0000
  S   S3        1.0  0.9267641240730882  0.4889069274067879  0.9984006583690643  1.0000
  S   S4        1.0  0.7770635485649109  0.2615290731191635  0.5324509739875793  1.0000
  O   O1        1.0  0.5625453721731901  0.4961537327617407  0.6492802514694631  1.0000
  O   O2        1.0  0.10487161064520478  0.7588789146393538  0.9360369802452624  1.0000
  O   O3        1.0  0.8281039074063301  0.9411287158727646  0.3668308574706316  1.0000
  O   O4        1.0  0.5712521721143275  0.9860483920201659  0.6689291324000806  1.0000
  O   O5        1.0  0.36143180704675615  0.3865327527746558  0.6927751407492906  1.0000
  O   O6        1.0  0.7998280376195908  0.21643954142928123  0.45032788161188364  1.0000
  O   O7        1.0  0.520784602034837  0.2190879958216101  0.7890794856939465  1.0000
  O   O8        1.0  0.02213326597120613  0.8390489183366299  0.2998391673900187  1.0000
data_image139
_chemical_formula_structural       Cs4H4S4O8
_chemical_formula_sum              "Cs4 H4 S4 O8"
_cell_length_a       5.817371
_cell_length_b       6.411326074356613
_cell_length_c       12.038703921785974
_cell_angle_alpha    93.7344795294116
_cell_angle_beta     90.0
_cell_angle_gamma    116.97998093780937

_space_group_name_H-M_alt    "P 1"
_space_group_IT_number       1

loop_
  _space_group_symop_operation_xyz
  'x, y, z'

loop_
  _atom_site_type_symbol
  _atom_site_label
  _atom_site_symmetry_multiplicity
  _atom_site_fract_x
  _atom_site_fract_y
  _atom_site_fract_z
  _atom_site_occupancy
  Cs  Cs1       1.0  0.613184217363596  0.8888646177947521  0.5715497005730867  1.0000
  Cs  Cs2       1.0  0.9603324327617884  0.21724290866404772  0.8539490671828389  1.0000
  Cs  Cs3       1.0  0.32384610921144485  0.8773773014545441  0.47600509668700397  1.0000
  Cs  Cs4       1.0  0.5349876806139946  0.2945212200284004  0.3899454101920128  1.0000
  H   H1        1.0  0.6497145444154739  0.5297075808048248  0.08539310097694397  1.0000
  H   H2        1.0  0.7770254760980606  0.9967436492443085  0.18930880725383759  1.0000
  H   H3        1.0  0.5982746183872223  0.9510442614555359  0.6151090562343597  1.0000
  H   H4        1.0  0.2705838829278946  0.7467813789844513  0.7594566065818071  1.0000
  S   S1        1.0  0.9930578470230103  0.0783840361982584  0.5991317890584469  1.0000
  S   S2        1.0  0.9257266595959663  0.8341410160064697  0.5585159808397293  1.0000
  S   S3        1.0  0.33815163280814886  0.09030859172344208  0.9295454695820808  1.0000
  S   S4        1.0  0.15743447840213776  0.16907888650894165  0.03191068768501282  1.0000
  O   O1        1.0  0.4685307084582746  0.5706656984984875  0.9125099079683423  1.0000
  O   O2        1.0  0.6807438801042736  0.3758713323622942  0.7954296483658254  1.0000
  O   O3        1.0  0.6098623722791672  0.8170531839132309  0.41676826402544975  1.0000
  O   O4        1.0  0.5893757251906209  0.5097254090942442  0.47339662280865014  1.0000
  O   O5        1.0  0.8137276754714549  0.4928288087248802  0.04201619909144938  1.0000
  O   O6        1.0  0.6095893010497093  0.5780503526329994  0.8012540210038424  1.0000
  O   O7        1.0  0.9755954844877124  0.24008586816489697  0.9050144981592894  1.0000
  O   O8        1.0  0.6453627588343807  0.944100677035749  0.7485454557463527  1.0000
data_image140
_chemical_formula_structural       Cs4H4S4O8
_chemical_formula_sum              "Cs4 H4 S4 O8"
_cell_length_a       5.817371
_cell_length_b       6.411326074356613
_cell_length_c       12.038703921785974
_cell_angle_alpha    93.7344795294116
_cell_angle_beta     90.0
_cell_angle_gamma    116.97998093780937

_space_group_name_H-M_alt    "P 1"
_space_group_IT_number       1

loop_
  _space_group_symop_operation_xyz
  'x, y, z'

loop_
  _atom_site_type_symbol
  _atom_site_label
  _atom_site_symmetry_multiplicity
  _atom_site_fract_x
  _atom_site_fract_y
  _atom_site_fract_z
  _atom_site_occupancy
  Cs  Cs1       1.0  0.31606999039649963  0.1669485978782177  0.0316007062792778  1.0000
  Cs  Cs2       1.0  0.0638749897480011  0.8580356533639133  0.9175395243801177  1.0000
  Cs  Cs3       1.0  0.3598347641527653  0.47818240709602833  0.08010259235743433  1.0000
  Cs  Cs4       1.0  0.8355002030730247  0.1973569355905056  0.6297759972512722  1.0000
  H   H1        1.0  0.7160200476646423  0.2008999139070511  0.9045269191265106  1.0000
  H   H2        1.0  0.9853974767029285  0.32697075232863426  0.27775250375270844  1.0000
  H   H3        1.0  0.1680336892604828  0.56027752161026  0.382276713848114  1.0000
  H   H4        1.0  0.33825254440307617  0.5047895312309265  0.8463682120200247  1.0000
  S   S1        1.0  0.3661981225013733  0.8615685508120805  0.9783780761063099  1.0000
  S   S2        1.0  0.16760576516389847  0.13981804251670837  0.8221560604870319  1.0000
  S   S3        1.0  0.3488580882549286  0.23182322084903717  0.024568386375904083  1.0000
  S   S4        1.0  0.25198912620544434  0.25779810547828674  0.3492790162563324  1.0000
  O   O1        1.0  0.3732666387222707  0.9763842783868313  0.3204484023153782  1.0000
  O   O2        1.0  0.4119752054102719  0.7355371974408627  0.33112680446356535  1.0000
  O   O3        1.0  0.7148713637143373  0.9087441489100456  0.4376827348023653  1.0000
  O   O4        1.0  0.05929395376006141  0.8748441045172513  0.6819503864389844  1.0000
  O   O5        1.0  0.9286306868307292  0.4341941438615322  0.43669415218755603  1.0000
  O   O6        1.0  0.5845637246966362  0.2847742848098278  0.24645638838410378  1.0000
  O   O7        1.0  0.014669349417090416  0.6644803467206657  0.02278936095535755  1.0000
  O   O8        1.0  0.1321866882753966  0.13272008951753378  0.8851085361093283  1.0000
data_image141
_chemical_formula_structural       Cs4H4S4O8
_chemical_formula_sum              "Cs4 H4 S4 O8"
_cell_length_a       5.817371
_cell_length_b       6.411326074356613
_cell_length_c       12.038703921785974
_cell_angle_alpha    93.7344795294116
_cell_angle_beta     90.0
_cell_angle_gamma    116.97998093780937

_space_group_name_H-M_alt    "P 1"
_space_group_IT_number       1

loop_
  _space_group_symop_operation_xyz
  'x, y, z'

loop_
  _atom_site_type_symbol
  _atom_site_label
  _atom_site_symmetry_multiplicity
  _atom_site_fract_x
  _atom_site_fract_y
  _atom_site_fract_z
  _atom_site_occupancy
  Cs  Cs1       1.0  0.8202871046960354  0.6915314756333828  0.718277920037508  1.0000
  Cs  Cs2       1.0  0.83079575560987  0.5312381256371737  0.7695476016961038  1.0000
  Cs  Cs3       1.0  0.32685067132115364  0.20480011776089668  0.020945926080457866  1.0000
  Cs  Cs4       1.0  0.989625059068203  0.3607579544186592  0.4968128129839897  1.0000
  H   H1        1.0  0.10048931837081909  0.011705473065376282  0.9281081557273865  1.0000
  H   H2        1.0  0.7551526576280594  0.4793470837175846  0.21351484209299088  1.0000
  H   H3        1.0  0.964137077331543  0.08857336640357971  0.2846968472003937  1.0000
  H   H4        1.0  0.5360253900289536  0.5575686395168304  0.4646901711821556  1.0000
  S   S1        1.0  0.24288064241409302  0.11094460624735802  0.8758313059806824  1.0000
  S   S2        1.0  0.3005257025361061  0.8099859952926636  0.040701791644096375  1.0000
  S   S3        1.0  0.2871545199304819  0.2864317297935486  0.18096338212490082  1.0000
  S   S4        1.0  0.11991570144891739  0.3323539197444916  0.9392900168895721  1.0000
  O   O1        1.0  0.44719908526167274  0.6223441679030657  0.6081081377342343  1.0000
  O   O2        1.0  0.6532091129338369  0.16219592094421387  0.6744070912245661  1.0000
  O   O3        1.0  0.43945616763085127  0.9120090082287788  0.6955193560570478  1.0000
  O   O4        1.0  0.11282339342869818  0.02302458230406046  0.9132737324689515  1.0000
  O   O5        1.0  0.5622095712460577  0.29422725830227137  0.3845645438414067  1.0000
  O   O6        1.0  0.5098312348127365  0.15748190879821777  0.26386088179424405  1.0000
  O   O7        1.0  0.7982204067520797  0.20652899146080017  0.09791505942121148  1.0000
  O   O8        1.0  0.07974577681625306  0.2708848100155592  0.47582863084971905  1.0000
data_image142
_chemical_formula_structural       Cs4H4S4O8
_chemical_formula_sum              "Cs4 H4 S4 O8"
_cell_length_a       5.817371
_cell_length_b       6.411326074356613
_cell_length_c       12.038703921785974
_cell_angle_alpha    93.7344795294116
_cell_angle_beta     90.0
_cell_angle_gamma    116.97998093780937

_space_group_name_H-M_alt    "P 1"
_space_group_IT_number       1

loop_
  _space_group_symop_operation_xyz
  'x, y, z'

loop_
  _atom_site_type_symbol
  _atom_site_label
  _atom_site_symmetry_multiplicity
  _atom_site_fract_x
  _atom_site_fract_y
  _atom_site_fract_z
  _atom_site_occupancy
  Cs  Cs1       1.0  0.40129075944423676  0.13213800266385078  0.7279000543057919  1.0000
  Cs  Cs2       1.0  0.8442512582987547  0.8285721675492823  0.5453853900544345  1.0000
  Cs  Cs3       1.0  0.6585243828594685  0.14283295907080173  0.8538151265820488  1.0000
  Cs  Cs4       1.0  0.45614711940288544  0.70070556178689  0.05065113119781017  1.0000
  H   H1        1.0  0.16229045391082764  0.8911512196063995  0.3215104341506958  1.0000
  H   H2        1.0  0.1651351936161518  0.8297542035579681  0.9094691574573517  1.0000
  H   H3        1.0  0.9999854415655136  0.4571816325187683  0.5868991613388062  1.0000
  H   H4        1.0  0.7355924993753433  0.6374946534633636  0.6626716605387628  1.0000
  S   S1        1.0  0.9153627455234528  0.727206573355943  0.5784080028533936  1.0000
  S   S2        1.0  0.2046542838215828  0.8612923920154572  0.4634357839822769  1.0000
  S   S3        1.0  0.8867693021893501  0.9168134927749634  0.8090657964348793  1.0000
  S   S4        1.0  0.7310121133923531  0.30755627155303955  0.16099843382835388  1.0000
  O   O1        1.0  0.2289415756240487  0.4494314156472683  0.03833496244624257  1.0000
  O   O2        1.0  0.40819216602903907  0.3043523710221052  0.7048037534113973  1.0000
  O   O3        1.0  0.8373876735568047  0.874052457511425  0.9585295673459768  1.0000
  O   O4        1.0  0.32274796115234494  0.9943930953741074  0.47426112659741193  1.0000
  O   O5        1.0  0.28364441357553005  0.4844128917902708  0.7455105583649129  1.0000
  O   O6        1.0  0.3693602904677391  0.1687401495873928  0.12862094584852457  1.0000
  O   O7        1.0  0.4267475325614214  0.8740960340946913  0.6110876069869846  1.0000
  O   O8        1.0  0.3321710727398113  0.7183205867186189  0.7425924665294588  1.0000
data_image143
_chemical_formula_structural       Cs4H4S4O8
_chemical_formula_sum              "Cs4 H4 S4 O8"
_cell_length_a       5.817371
_cell_length_b       6.411326074356613
_cell_length_c       12.038703921785974
_cell_angle_alpha    93.7344795294116
_cell_angle_beta     90.0
_cell_angle_gamma    116.97998093780937

_space_group_name_H-M_alt    "P 1"
_space_group_IT_number       1

loop_
  _space_group_symop_operation_xyz
  'x, y, z'

loop_
  _atom_site_type_symbol
  _atom_site_label
  _atom_site_symmetry_multiplicity
  _atom_site_fract_x
  _atom_site_fract_y
  _atom_site_fract_z
  _atom_site_occupancy
  Cs  Cs1       1.0  0.053764402866363525  0.16849978640675545  0.5203580744564533  1.0000
  Cs  Cs2       1.0  0.5942942220717669  0.9896810334175825  0.5030070352368057  1.0000
  Cs  Cs3       1.0  0.18964603543281555  0.8024962805211544  0.3606485319323838  1.0000
  Cs  Cs4       1.0  0.5850936099886894  0.8086825087666512  0.7410874404013157  1.0000
  H   H1        1.0  0.2700151056051254  0.794993057847023  0.8596666753292084  1.0000
  H   H2        1.0  0.9646352361887693  0.825281098484993  0.24435590952634811  1.0000
  H   H3        1.0  0.34425000846385956  0.6654642522335052  0.11926180124282837  1.0000
  H   H4        1.0  0.19940198957920074  0.4016871750354767  0.6163939898833632  1.0000
  S   S1        1.0  0.15678632259368896  0.7092313922476023  0.22383175790309906  1.0000
  S   S2        1.0  0.6086757034063339  0.30897262692451477  0.16288607195019722  1.0000
  S   S3        1.0  0.24045315571129322  0.7219256833195686  0.613743931055069  1.0000
  S   S4        1.0  0.9577706903219223  0.06123019754886627  0.9705112129449844  1.0000
  O   O1        1.0  0.5166055615991354  0.44145254977047443  0.3419254431501031  1.0000
  O   O2        1.0  0.9365783405664843  0.49428278394043446  0.7577284059952945  1.0000
  O   O3        1.0  0.026110798120498657  0.25531086325645447  0.615365082398057  1.0000
  O   O4        1.0  0.5060412399470806  0.6243257634341717  0.9381650659488514  1.0000
  O   O5        1.0  0.06072341141407378  0.20251363096758723  0.5661479665432125  1.0000
  O   O6        1.0  0.6292262151837349  0.7808736339211464  0.784941871650517  1.0000
  O   O7        1.0  0.9588055280037224  0.28149114665575325  0.794246674515307  1.0000
  O   O8        1.0  0.9632403375871945  0.7425630269572139  0.39820285933092237  1.0000
data_image144
_chemical_formula_structural       Cs4H4S4O8
_chemical_formula_sum              "Cs4 H4 S4 O8"
_cell_length_a       5.817371
_cell_length_b       6.411326074356613
_cell_length_c       12.038703921785974
_cell_angle_alpha    93.7344795294116
_cell_angle_beta     90.0
_cell_angle_gamma    116.97998093780937

_space_group_name_H-M_alt    "P 1"
_space_group_IT_number       1

loop_
  _space_group_symop_operation_xyz
  'x, y, z'

loop_
  _atom_site_type_symbol
  _atom_site_label
  _atom_site_symmetry_multiplicity
  _atom_site_fract_x
  _atom_site_fract_y
  _atom_site_fract_z
  _atom_site_occupancy
  Cs  Cs1       1.0  0.8569045215845108  0.8428767397999763  0.6929502747952938  1.0000
  Cs  Cs2       1.0  0.25167880207300186  0.03317264071665704  0.512948895804584  1.0000
  Cs  Cs3       1.0  0.1165219098329544  0.456180514767766  0.8035722726490349  1.0000
  Cs  Cs4       1.0  0.3352273255586624  0.669289618730545  0.5207940246909857  1.0000
  H   H1        1.0  0.7334785014390945  0.7787641733884811  0.6845883429050446  1.0000
  H   H2        1.0  0.235662454739213  0.6574948318302631  0.7532519064843655  1.0000
  H   H3        1.0  0.4036360830068588  0.8720410466194153  0.8017887473106384  1.0000
  H   H4        1.0  0.745630607008934  0.6075242608785629  0.9653465487062931  1.0000
  S   S1        1.0  0.21819329261779785  0.08661157885217108  0.693621676415205  1.0000
  S   S2        1.0  0.10265058279037476  0.6158460378646851  0.3959398828446865  1.0000
  S   S3        1.0  0.29008519649505615  0.5362900495529175  0.0991840586066246  1.0000
  S   S4        1.0  0.0037771202623844147  0.09348433464765549  0.42819252610206604  1.0000
  O   O1        1.0  0.8719023342709988  0.6058660726994276  0.7021380942314863  1.0000
  O   O2        1.0  0.5768233234412037  0.35333374701440334  0.8656934686005116  1.0000
  O   O3        1.0  0.2265190752223134  0.2758748009800911  0.4803465735167265  1.0000
  O   O4        1.0  0.49895142717286944  0.3474303516559303  0.45148507598787546  1.0000
  O   O5        1.0  0.3907260777777992  0.8841077578254044  0.06430638930760324  1.0000
  O   O6        1.0  0.3673372119665146  0.8937849514186382  0.46553370635956526  1.0000
  O   O7        1.0  0.8493564310483634  0.7942768768407404  0.22532172547653317  1.0000
  O   O8        1.0  0.5167195429385174  0.13750252965837717  0.14204980758950114  1.0000
data_image145
_chemical_formula_structural       Cs4H4S4O8
_chemical_formula_sum              "Cs4 H4 S4 O8"
_cell_length_a       5.817371
_cell_length_b       6.411326074356613
_cell_length_c       12.038703921785974
_cell_angle_alpha    93.7344795294116
_cell_angle_beta     90.0
_cell_angle_gamma    116.97998093780937

_space_group_name_H-M_alt    "P 1"
_space_group_IT_number       1

loop_
  _space_group_symop_operation_xyz
  'x, y, z'

loop_
  _atom_site_type_symbol
  _atom_site_label
  _atom_site_symmetry_multiplicity
  _atom_site_fract_x
  _atom_site_fract_y
  _atom_site_fract_z
  _atom_site_occupancy
  Cs  Cs1       1.0  0.10973168537020683  0.09357917308807373  0.3701722491532564  1.0000
  Cs  Cs2       1.0  0.12393487617373466  0.951864602509886  0.5069522112607956  1.0000
  Cs  Cs3       1.0  0.06285027042031288  0.3261764720082283  0.13462416257243603  1.0000
  Cs  Cs4       1.0  0.04379191994667053  0.21174903959035873  0.7772659808397293  1.0000
  H   H1        1.0  0.2432536482810974  0.7617994099855423  0.3703747093677521  1.0000
  H   H2        1.0  0.38878707215189934  0.20539915189146996  0.4801558814942837  1.0000
  H   H3        1.0  0.0815439373254776  0.8902958929538727  0.7206481397151947  1.0000
  H   H4        1.0  0.5944651812314987  0.22901660203933716  0.7428255071863532  1.0000
  S   S1        1.0  0.39150866866111755  0.28665264596929774  0.9158939905464649  1.0000
  S   S2        1.0  0.8657601252198219  0.9165436923503876  0.029114428907632828  1.0000
  S   S3        1.0  0.03363347798585892  0.31164608150720596  0.5149409174919128  1.0000
  S   S4        1.0  0.05340045504271984  0.9093305021524429  0.948554664850235  1.0000
  O   O1        1.0  0.8694269352126867  0.861680680885911  0.5400174343958497  1.0000
  O   O2        1.0  0.8137071055243723  0.49645634554326534  0.6680042026564479  1.0000
  O   O3        1.0  0.3179299393668771  0.22089488804340363  0.518040057271719  1.0000
  O   O4        1.0  0.37190037313848734  0.707184246275574  0.8332881140522659  1.0000
  O   O5        1.0  0.32086048694327474  0.8252157827373594  0.9301751550519839  1.0000
  O   O6        1.0  0.7510243803262711  0.43112875521183014  0.04594471678137779  1.0000
  O   O7        1.0  0.7507871724665165  0.5443920800462365  0.4582778175827116  1.0000
  O   O8        1.0  0.7429684363596607  0.739261488430202  0.7025393391959369  1.0000
data_image146
_chemical_formula_structural       Cs4H4S4O8
_chemical_formula_sum              "Cs4 H4 S4 O8"
_cell_length_a       5.817371
_cell_length_b       6.411326074356613
_cell_length_c       12.038703921785974
_cell_angle_alpha    93.7344795294116
_cell_angle_beta     90.0
_cell_angle_gamma    116.97998093780937

_space_group_name_H-M_alt    "P 1"
_space_group_IT_number       1

loop_
  _space_group_symop_operation_xyz
  'x, y, z'

loop_
  _atom_site_type_symbol
  _atom_site_label
  _atom_site_symmetry_multiplicity
  _atom_site_fract_x
  _atom_site_fract_y
  _atom_site_fract_z
  _atom_site_occupancy
  Cs  Cs1       1.0  0.830073531717062  0.6813015416264534  0.6623043864965439  1.0000
  Cs  Cs2       1.0  0.750984001904726  0.9715918158181012  0.5131715098395944  1.0000
  Cs  Cs3       1.0  0.810925405472517  0.9003028869628906  0.9939478146843612  1.0000
  Cs  Cs4       1.0  0.34601297229528427  0.5027252957224846  0.6863060593605042  1.0000
  H   H1        1.0  0.04168263077735901  0.08410829305648804  0.5423925220966339  1.0000
  H   H2        1.0  0.45040323957800865  0.6800712533295155  0.5045746453106403  1.0000
  H   H3        1.0  0.49141842126846313  0.33280038833618164  0.355753630399704  1.0000
  H   H4        1.0  0.9488612711429596  0.5158739537000656  0.36094496585428715  1.0000
  S   S1        1.0  0.6043848991394043  0.6045541495550424  0.12616467848420143  1.0000
  S   S2        1.0  0.12752103060483932  0.4533911943435669  0.18666138499975204  1.0000
  S   S3        1.0  0.03774818778038025  0.09086696058511734  0.2885943204164505  1.0000
  S   S4        1.0  0.3166683530434966  0.8974855840206146  0.8056621253490448  1.0000
  O   O1        1.0  0.2873522425070405  0.9952218104153872  0.6244829245842993  1.0000
  O   O2        1.0  0.6625261147273704  0.8645570166409016  0.9054674359504133  1.0000
  O   O3        1.0  0.724728649482131  0.9757616594433784  0.29323912784457207  1.0000
  O   O4        1.0  0.13523327466100454  0.32433208962902427  0.7130610146559775  1.0000
  O   O5        1.0  0.6474921178305522  0.2322170662228018  0.5280132486950606  1.0000
  O   O6        1.0  0.8047666326165199  0.9007399193942547  0.5523440111428499  1.0000
  O   O7        1.0  0.14055090583860874  0.7270018497947603  0.6042852853424847  1.0000
  O   O8        1.0  0.9515021242987132  0.7007974218577147  0.927752205170691  1.0000
data_image147
_chemical_formula_structural       Cs4H4S4O8
_chemical_formula_sum              "Cs4 H4 S4 O8"
_cell_length_a       5.817371
_cell_length_b       6.411326074356613
_cell_length_c       12.038703921785974
_cell_angle_alpha    93.7344795294116
_cell_angle_beta     90.0
_cell_angle_gamma    116.97998093780937

_space_group_name_H-M_alt    "P 1"
_space_group_IT_number       1

loop_
  _space_group_symop_operation_xyz
  'x, y, z'

loop_
  _atom_site_type_symbol
  _atom_site_label
  _atom_site_symmetry_multiplicity
  _atom_site_fract_x
  _atom_site_fract_y
  _atom_site_fract_z
  _atom_site_occupancy
  Cs  Cs1       1.0  0.9595641419291496  0.678450133651495  0.4068721067160368  1.0000
  Cs  Cs2       1.0  0.023431798443198204  0.12848144443705678  0.919750910717994  1.0000
  Cs  Cs3       1.0  0.5202972367405891  0.21939566358923912  0.5376658365130424  1.0000
  Cs  Cs4       1.0  0.4750753939151764  0.3775545060634613  0.9935958869755268  1.0000
  H   H1        1.0  0.025530695915222168  0.22217288613319397  0.5105811655521393  1.0000
  H   H2        1.0  0.4754031877964735  0.13223709911108017  0.31360889598727226  1.0000
  H   H3        1.0  0.8097167313098907  0.4843162000179291  0.16668477654457092  1.0000
  H   H4        1.0  0.19059008359909058  0.16782711446285248  0.3343036714941263  1.0000
  S   S1        1.0  0.698548436164856  0.8389486470259726  0.3052638880908489  1.0000
  S   S2        1.0  0.9882517233490944  0.6674686670303345  0.7177168652415276  1.0000
  S   S3        1.0  0.7503280825912952  0.7608061656355858  0.3812113255262375  1.0000
  S   S4        1.0  0.2779045766219497  0.3150550052523613  0.2216334342956543  1.0000
  O   O1        1.0  0.32579662348143756  0.8668100964277983  0.6798351989127696  1.0000
  O   O2        1.0  0.39222000126028433  0.810903875157237  0.89367800578475  1.0000
  O   O3        1.0  0.9414699282497168  0.13682927191257477  0.13747536949813366  1.0000
  O   O4        1.0  0.537025545258075  0.6046329601667821  0.8616956214536913  1.0000
  O   O5        1.0  0.4472057605162263  0.6411853989120573  0.8006994498427957  1.0000
  O   O6        1.0  0.06817050278186798  0.9156018644571304  0.32276004180312157  1.0000
  O   O7        1.0  0.33294848073273897  0.09759346162900329  0.5852968017570674  1.0000
  O   O8        1.0  0.2914952655119123  0.09561199136078358  0.39153310284018517  1.0000
data_image148
_chemical_formula_structural       Cs4H4S4O8
_chemical_formula_sum              "Cs4 H4 S4 O8"
_cell_length_a       5.817371
_cell_length_b       6.411326074356613
_cell_length_c       12.038703921785974
_cell_angle_alpha    93.7344795294116
_cell_angle_beta     90.0
_cell_angle_gamma    116.97998093780937

_space_group_name_H-M_alt    "P 1"
_space_group_IT_number       1

loop_
  _space_group_symop_operation_xyz
  'x, y, z'

loop_
  _atom_site_type_symbol
  _atom_site_label
  _atom_site_symmetry_multiplicity
  _atom_site_fract_x
  _atom_site_fract_y
  _atom_site_fract_z
  _atom_site_occupancy
  Cs  Cs1       1.0  0.6905019544064999  0.8442043773829937  0.5046789348125458  1.0000
  Cs  Cs2       1.0  0.3019706755876541  0.7072600089013577  0.19555601757019758  1.0000
  Cs  Cs3       1.0  0.11459339782595634  0.3850550279021263  0.8343277145177126  1.0000
  Cs  Cs4       1.0  0.7730259522795677  0.5621282309293747  0.05068747140467167  1.0000
  H   H1        1.0  0.0548156201839447  0.7607063949108124  0.9103812575340271  1.0000
  H   H2        1.0  0.7866019736975431  0.3016464151442051  0.9624794535338879  1.0000
  H   H3        1.0  0.7203241884708405  0.5075700879096985  0.313804566860199  1.0000
  H   H4        1.0  0.8361964523792267  0.46245600283145905  0.8618046697229147  1.0000
  S   S1        1.0  0.43988725543022156  0.3090538736432791  0.21437093429267406  1.0000
  S   S2        1.0  0.2851356118917465  0.524604856967926  0.2099549025297165  1.0000
  S   S3        1.0  0.6873278506100178  0.5049089267849922  0.050827398896217346  1.0000
  S   S4        1.0  0.8310264889150858  0.6607741713523865  0.9052349925041199  1.0000
  O   O1        1.0  0.8368199586402625  0.5131425727158785  0.2564661670476198  1.0000
  O   O2        1.0  0.9803698065225035  0.7354650180786848  0.6863477695733309  1.0000
  O   O3        1.0  0.5750949764624238  0.6197866499423981  0.2387575674802065  1.0000
  O   O4        1.0  0.7208186951465905  0.19497746601700783  0.7407243332709186  1.0000
  O   O5        1.0  0.7623324221931398  0.13011853024363518  0.9749666911084205  1.0000
  O   O6        1.0  0.03146543353796005  0.052472978830337524  0.8007844006642699  1.0000
  O   O7        1.0  0.40635279938578606  0.22953209467232227  0.32520094490610063  1.0000
  O   O8        1.0  0.08889563320553862  0.5392831349745393  0.1226538885384798  1.0000
data_image149
_chemical_formula_structural       Cs4H4S4O8
_chemical_formula_sum              "Cs4 H4 S4 O8"
_cell_length_a       5.817371
_cell_length_b       6.411326074356613
_cell_length_c       12.038703921785974
_cell_angle_alpha    93.7344795294116
_cell_angle_beta     90.0
_cell_angle_gamma    116.97998093780937

_space_group_name_H-M_alt    "P 1"
_space_group_IT_number       1

loop_
  _space_group_symop_operation_xyz
  'x, y, z'

loop_
  _atom_site_type_symbol
  _atom_site_label
  _atom_site_symmetry_multiplicity
  _atom_site_fract_x
  _atom_site_fract_y
  _atom_site_fract_z
  _atom_site_occupancy
  Cs  Cs1       1.0  0.09738355502486229  0.9128585048019886  0.5359142888337374  1.0000
  Cs  Cs2       1.0  0.29809264838695526  0.8247723001986742  0.5128509378992021  1.0000
  Cs  Cs3       1.0  0.1978612169623375  0.45694336481392384  0.48621020186692476  1.0000
  Cs  Cs4       1.0  0.03300449252128601  0.14114544540643692  0.055487290024757385  1.0000
  H   H1        1.0  0.14510081708431244  0.38805079460144043  0.3959003686904907  1.0000
  H   H2        1.0  0.43777692690491676  0.8210354223847389  0.157333105802536  1.0000
  H   H3        1.0  0.783087357878685  0.11101964116096497  0.2555747628211975  1.0000
  H   H4        1.0  0.450940802693367  0.7445350289344788  0.6732144523411989  1.0000
  S   S1        1.0  0.94498410820961  0.8595339059829712  0.16950278729200363  1.0000
  S   S2        1.0  0.9977809712290764  0.5626424551010132  0.05131089687347412  1.0000
  S   S3        1.0  0.01544690877199173  0.9561675786972046  0.6893089562654495  1.0000
  S   S4        1.0  0.7479335516691208  0.0981905534863472  0.14218442142009735  1.0000
  O   O1        1.0  0.8284676745533943  0.7512164041399956  0.49062797147780657  1.0000
  O   O2        1.0  0.9782395614311099  0.7313333954662085  0.3865533755160868  1.0000
  O   O3        1.0  0.4856273988261819  0.29203157871961594  0.6099785920232534  1.0000
  O   O4        1.0  0.09804757265374064  0.8066962782759219  0.6968897937913425  1.0000
  O   O5        1.0  0.24301227962132543  0.595665903063491  0.612058745813556  1.0000
  O   O6        1.0  0.10536866635084152  0.49907295033335686  0.8105421452783048  1.0000
  O   O7        1.0  0.713573148008436  0.6544765166472644  0.4458254126366228  1.0000
  O   O8        1.0  0.2395389945304487  0.8305132025852799  0.5798060819506645  1.0000
data_image150
_chemical_formula_structural       Cs4H4S4O8
_chemical_formula_sum              "Cs4 H4 S4 O8"
_cell_length_a       5.817371
_cell_length_b       6.411326074356613
_cell_length_c       12.038703921785974
_cell_angle_alpha    93.7344795294116
_cell_angle_beta     90.0
_cell_angle_gamma    116.97998093780937

_space_group_name_H-M_alt    "P 1"
_space_group_IT_number       1

loop_
  _space_group_symop_operation_xyz
  'x, y, z'

loop_
  _atom_site_type_symbol
  _atom_site_label
  _atom_site_symmetry_multiplicity
  _atom_site_fract_x
  _atom_site_fract_y
  _atom_site_fract_z
  _atom_site_occupancy
  Cs  Cs1       1.0  0.26693036779761314  0.033351998776197433  0.15846241638064384  1.0000
  Cs  Cs2       1.0  0.32567450776696205  0.46879763109609485  0.7959957276470959  1.0000
  Cs  Cs3       1.0  0.2982672452926636  0.5444718338549137  0.5533467549830675  1.0000
  Cs  Cs4       1.0  0.9102628603577614  0.5743509754538536  0.8349685091525316  1.0000
  H   H1        1.0  0.12528790533542633  0.9748125672340393  0.47114595770835876  1.0000
  H   H2        1.0  0.43735167384147644  0.147250734269619  0.8497156649827957  1.0000
  H   H3        1.0  0.7070580422878265  0.47473859786987305  0.6021566092967987  1.0000
  H   H4        1.0  0.4695293456315994  0.05482916533946991  0.623224001377821  1.0000
  S   S1        1.0  0.8096810579299927  0.03751969989389181  0.5519047062844038  1.0000
  S   S2        1.0  0.7108897939324379  0.08439421653747559  0.07336585968732834  1.0000
  S   S3        1.0  0.01195928081870079  0.0820450633764267  0.3643686771392822  1.0000
  S   S4        1.0  0.6720476653426886  0.47606148570775986  0.23179934918880463  1.0000
  O   O1        1.0  0.7607296765781939  0.37528768368065357  0.731782975140959  1.0000
  O   O2        1.0  0.3426054730080068  0.40519236773252487  0.639512428548187  1.0000
  O   O3        1.0  0.4486952302977443  0.9704288765788078  0.654493898153305  1.0000
  O   O4        1.0  0.9441527095623314  0.8249745182693005  0.432207238744013  1.0000
  O   O5        1.0  0.060991792124696076  0.1282017317134887  0.3803778359433636  1.0000
  O   O6        1.0  0.3704233765602112  0.7776808477938175  0.5880535175092518  1.0000
  O   O7        1.0  0.037824131548404694  0.3433706590440124  0.3418193352408707  1.0000
  O   O8        1.0  0.37732948100892827  0.6263155108317733  0.13584757456555963  1.0000
data_image151
_chemical_formula_structural       Cs4H4S4O8
_chemical_formula_sum              "Cs4 H4 S4 O8"
_cell_length_a       5.817371
_cell_length_b       6.411326074356613
_cell_length_c       12.038703921785974
_cell_angle_alpha    93.7344795294116
_cell_angle_beta     90.0
_cell_angle_gamma    116.97998093780937

_space_group_name_H-M_alt    "P 1"
_space_group_IT_number       1

loop_
  _space_group_symop_operation_xyz
  'x, y, z'

loop_
  _atom_site_type_symbol
  _atom_site_label
  _atom_site_symmetry_multiplicity
  _atom_site_fract_x
  _atom_site_fract_y
  _atom_site_fract_z
  _atom_site_occupancy
  Cs  Cs1       1.0  0.3520119711756706  0.9139030911028385  0.2799974698573351  1.0000
  Cs  Cs2       1.0  0.9848671481013298  0.6600604960694909  0.9316954612731934  1.0000
  Cs  Cs3       1.0  0.5867210067808628  0.19016843102872372  0.5334192719310522  1.0000
  Cs  Cs4       1.0  0.02214408665895462  0.8443915471434593  0.08269301056861877  1.0000
  H   H1        1.0  0.20313136279582977  0.1208253800868988  0.04853719472885132  1.0000
  H   H2        1.0  0.2551010884344578  0.1768610179424286  0.38573668897151947  1.0000
  H   H3        1.0  0.32647357881069183  0.8490331768989563  0.304338276386261  1.0000
  H   H4        1.0  0.08119447529315948  0.27877965569496155  0.8679808564484119  1.0000
  S   S1        1.0  0.5567430853843689  0.7709926120005548  0.6829037871211767  1.0000
  S   S2        1.0  0.07094409316778183  0.1533973217010498  0.6388749480247498  1.0000
  S   S3        1.0  0.886700700968504  0.9006030932068825  0.7284256368875504  1.0000
  S   S4        1.0  0.6038534641265869  0.15986349061131477  0.534938782453537  1.0000
  O   O1        1.0  0.44191670184955  0.9146765321493149  0.4341762950643897  1.0000
  O   O2        1.0  0.558415821637027  0.5847509894520044  0.655508138705045  1.0000
  O   O3        1.0  0.7306225216016173  0.31803567707538605  0.22493360750377178  1.0000
  O   O4        1.0  0.7603498240932822  0.10179829807020724  0.23551084339851514  1.0000
  O   O5        1.0  0.2914190363371745  0.33731178706511855  0.12057821755297482  1.0000
  O   O6        1.0  0.2366686537861824  0.15909599885344505  0.2772703655064106  1.0000
  O   O7        1.0  0.6520011289976537  0.8007802167558111  0.9296462072525173  1.0000
  O   O8        1.0  0.5367954825051129  0.051704478450119495  0.9073196426033974  1.0000
data_image152
_chemical_formula_structural       Cs4H4S4O8
_chemical_formula_sum              "Cs4 H4 S4 O8"
_cell_length_a       5.817371
_cell_length_b       6.411326074356613
_cell_length_c       12.038703921785974
_cell_angle_alpha    93.7344795294116
_cell_angle_beta     90.0
_cell_angle_gamma    116.97998093780937

_space_group_name_H-M_alt    "P 1"
_space_group_IT_number       1

loop_
  _space_group_symop_operation_xyz
  'x, y, z'

loop_
  _atom_site_type_symbol
  _atom_site_label
  _atom_site_symmetry_multiplicity
  _atom_site_fract_x
  _atom_site_fract_y
  _atom_site_fract_z
  _atom_site_occupancy
  Cs  Cs1       1.0  0.8240344412624836  0.6775840073823929  0.20548572205007076  1.0000
  Cs  Cs2       1.0  0.8847351539880037  0.35677883587777615  0.8275621305219829  1.0000
  Cs  Cs3       1.0  0.7177285365760326  0.4157186709344387  0.23108210414648056  1.0000
  Cs  Cs4       1.0  0.6666532605886459  0.9035953283309937  0.4378637485206127  1.0000
  H   H1        1.0  0.6678340137004852  0.33025577664375305  0.67193403840065  1.0000
  H   H2        1.0  0.4234174247831106  0.9955806247889996  0.48192474991083145  1.0000
  H   H3        1.0  0.9875502288341522  0.08924621343612671  0.702499121427536  1.0000
  H   H4        1.0  0.014087632298469543  0.22267131507396698  0.11175605654716492  1.0000
  S   S1        1.0  0.4894331395626068  0.2517959666438401  0.8411950189620256  1.0000
  S   S2        1.0  0.38454776257276535  0.15767642855644226  0.3120936453342438  1.0000
  S   S3        1.0  0.19583482667803764  0.4142884165048599  0.42764125764369965  1.0000
  S   S4        1.0  0.5687844827771187  0.1381885213777423  0.7911893725395203  1.0000
  O   O1        1.0  0.8821793785318732  0.48704783245921135  0.38952329149469733  1.0000
  O   O2        1.0  0.7911214194027707  0.9287511482834816  0.32123344927094877  1.0000
  O   O3        1.0  0.6659704828634858  0.366319864988327  0.966151075437665  1.0000
  O   O4        1.0  0.6541114887222648  0.8744084970094264  0.29456094198394567  1.0000
  O   O5        1.0  0.11893320537637919  0.7364759538322687  0.3136574721429497  1.0000
  O   O6        1.0  0.8098324835300446  0.27351265773177147  0.5180707457475364  1.0000
  O   O7        1.0  0.4362527150660753  0.7960518782492727  0.5632518876809627  1.0000
  O   O8        1.0  0.029491195979062468  0.7003235416486859  0.9036244098097086  1.0000
data_image153
_chemical_formula_structural       Cs4H4S4O8
_chemical_formula_sum              "Cs4 H4 S4 O8"
_cell_length_a       5.817371
_cell_length_b       6.411326074356613
_cell_length_c       12.038703921785974
_cell_angle_alpha    93.7344795294116
_cell_angle_beta     90.0
_cell_angle_gamma    116.97998093780937

_space_group_name_H-M_alt    "P 1"
_space_group_IT_number       1

loop_
  _space_group_symop_operation_xyz
  'x, y, z'

loop_
  _atom_site_type_symbol
  _atom_site_label
  _atom_site_symmetry_multiplicity
  _atom_site_fract_x
  _atom_site_fract_y
  _atom_site_fract_z
  _atom_site_occupancy
  Cs  Cs1       1.0  0.5487022809684277  0.09189346060156822  0.6632427517324686  1.0000
  Cs  Cs2       1.0  0.2581640463322401  0.34973491821438074  0.7611713032238185  1.0000
  Cs  Cs3       1.0  0.2053285762667656  0.13690728694200516  0.8004582738503814  1.0000
  Cs  Cs4       1.0  0.8243342861533165  0.7931204736232758  0.2803562693297863  1.0000
  H   H1        1.0  0.2992008626461029  0.5212410688400269  0.7010815739631653  1.0000
  H   H2        1.0  0.8045732146129012  0.42134152725338936  0.7154660746455193  1.0000
  H   H3        1.0  0.38576820492744446  0.04061657190322876  0.4964703619480133  1.0000
  H   H4        1.0  0.4794861078262329  0.8836459815502167  0.8080905489623547  1.0000
  S   S1        1.0  0.15782085061073303  0.7180643468163908  0.1222336646169424  1.0000
  S   S2        1.0  0.5154118463397026  0.6850506067276001  0.4047101065516472  1.0000
  S   S3        1.0  0.5597111582756042  0.3436412587761879  0.7848351448774338  1.0000
  S   S4        1.0  0.7401261404156685  0.09601745568215847  0.6143444329500198  1.0000
  O   O1        1.0  0.2793969679623842  0.15991016291081905  0.2952360138297081  1.0000
  O   O2        1.0  0.052326176664792  0.07105378247797489  0.8095682631246746  1.0000
  O   O3        1.0  0.7473606690764427  0.9008475169539452  0.6384102739393711  1.0000
  O   O4        1.0  0.5465057264082134  0.24128315644338727  0.07833963958546519  1.0000
  O   O5        1.0  0.9572224612347782  0.17888297769241035  0.2760443785227835  1.0000
  O   O6        1.0  0.5283908918499947  0.5297740362584591  0.403649078682065  1.0000
  O   O7        1.0  0.7251032548956573  0.7025295726489276  0.7140664998441935  1.0000
  O   O8        1.0  0.9422653827350587  0.49605900421738625  0.29058558866381645  1.0000
data_image154
_chemical_formula_structural       Cs4H4S4O8
_chemical_formula_sum              "Cs4 H4 S4 O8"
_cell_length_a       5.817371
_cell_length_b       6.411326074356613
_cell_length_c       12.038703921785974
_cell_angle_alpha    93.7344795294116
_cell_angle_beta     90.0
_cell_angle_gamma    116.97998093780937

_space_group_name_H-M_alt    "P 1"
_space_group_IT_number       1

loop_
  _space_group_symop_operation_xyz
  'x, y, z'

loop_
  _atom_site_type_symbol
  _atom_site_label
  _atom_site_symmetry_multiplicity
  _atom_site_fract_x
  _atom_site_fract_y
  _atom_site_fract_z
  _atom_site_occupancy
  Cs  Cs1       1.0  0.279815461486578  0.9886730089783669  0.8029177002608776  1.0000
  Cs  Cs2       1.0  0.4620405472815037  0.4665587511844933  0.9161599688231945  1.0000
  Cs  Cs3       1.0  0.5293044932186604  0.8775363899767399  0.33965794229879975  1.0000
  Cs  Cs4       1.0  0.07114671915769577  0.4113054797053337  0.9389232210814953  1.0000
  H   H1        1.0  0.10743206739425659  0.13038170337677002  0.8244070708751678  1.0000
  H   H2        1.0  0.42357505206018686  0.9452630504965782  0.5860236920416355  1.0000
  H   H3        1.0  0.6278442740440369  0.09510442614555359  0.6024736166000366  1.0000
  H   H4        1.0  0.27085551619529724  0.6722241789102554  0.5581902889534831  1.0000
  S   S1        1.0  0.04835328459739685  0.4215502878651023  0.08977365680038929  1.0000
  S   S2        1.0  0.3814389109611511  0.11853709816932678  0.6430036798119545  1.0000
  S   S3        1.0  0.5408407934010029  0.8616550862789154  0.6720902025699615  1.0000
  S   S4        1.0  0.3346228674054146  0.5734998472034931  0.2610309422016144  1.0000
  O   O1        1.0  0.243709372356534  0.6505179945379496  0.6825472805649042  1.0000
  O   O2        1.0  0.10564277041703463  0.009882509708404541  0.36902910051867366  1.0000
  O   O3        1.0  0.9517122348770499  0.5380252227187157  0.7257004845887423  1.0000
  O   O4        1.0  0.1450785305351019  0.44447201304137707  0.9391629438614473  1.0000
  O   O5        1.0  0.8722945267800242  0.9318435965105891  0.6637167443986982  1.0000
  O   O6        1.0  0.2588049992918968  0.6436783000826836  0.08326619863510132  1.0000
  O   O7        1.0  0.0771911796182394  0.5528774370905012  0.2377559426240623  1.0000
  O   O8        1.0  0.7933727086347062  0.6552313072606921  0.7663667076267302  1.0000
data_image155
_chemical_formula_structural       Cs4H4S4O8
_chemical_formula_sum              "Cs4 H4 S4 O8"
_cell_length_a       5.817371
_cell_length_b       6.411326074356613
_cell_length_c       12.038703921785974
_cell_angle_alpha    93.7344795294116
_cell_angle_beta     90.0
_cell_angle_gamma    116.97998093780937

_space_group_name_H-M_alt    "P 1"
_space_group_IT_number       1

loop_
  _space_group_symop_operation_xyz
  'x, y, z'

loop_
  _atom_site_type_symbol
  _atom_site_label
  _atom_site_symmetry_multiplicity
  _atom_site_fract_x
  _atom_site_fract_y
  _atom_site_fract_z
  _atom_site_occupancy
  Cs  Cs1       1.0  0.26729122176766396  0.6302918083965778  0.0893719382584095  1.0000
  Cs  Cs2       1.0  0.4505394008010626  0.5777366864494979  0.9415277736261487  1.0000
  Cs  Cs3       1.0  0.5469249859452248  0.4410747401416302  0.5671464032493532  1.0000
  Cs  Cs4       1.0  0.23575933277606964  0.8902917578816414  0.0681568942964077  1.0000
  H   H1        1.0  0.15031632781028748  0.8575259000062943  0.23503291606903076  1.0000
  H   H2        1.0  0.26668222527951  0.25326813012361526  0.37933098524808884  1.0000
  H   H3        1.0  0.9048694372177124  0.6233170926570892  0.6181890070438385  1.0000
  H   H4        1.0  0.15280701220035553  0.1385066956281662  0.7246807971969247  1.0000
  S   S1        1.0  0.4075295329093933  0.7996108406223357  0.3174479566514492  1.0000
  S   S2        1.0  0.6001161336898804  0.7141631841659546  0.7492110803723335  1.0000
  S   S3        1.0  0.007080927491188049  0.4405493661761284  0.6869172155857086  1.0000
  S   S4        1.0  0.3375488296151161  0.9813220351934433  0.5199142098426819  1.0000
  O   O1        1.0  0.7012815284542739  0.6160462144762278  0.9830492725595832  1.0000
  O   O2        1.0  0.9360113872680813  0.5353187397122383  0.31828926294110715  1.0000
  O   O3        1.0  0.8100281553342938  0.7375357896089554  0.6300901025533676  1.0000
  O   O4        1.0  0.2589430185034871  0.8753181034699082  0.9531602504430339  1.0000
  O   O5        1.0  0.48986134224105626  0.6182179911993444  0.1239172451896593  1.0000
  O   O6        1.0  0.3643670901656151  0.40064070001244545  0.23431715415790677  1.0000
  O   O7        1.0  0.7433042395859957  0.3088911451632157  0.8452340185176581  1.0000
  O   O8        1.0  0.5385701603954658  0.7001238614320755  0.1204892941750586  1.0000
data_image156
_chemical_formula_structural       Cs4H4S4O8
_chemical_formula_sum              "Cs4 H4 S4 O8"
_cell_length_a       5.817371
_cell_length_b       6.411326074356613
_cell_length_c       12.038703921785974
_cell_angle_alpha    93.7344795294116
_cell_angle_beta     90.0
_cell_angle_gamma    116.97998093780937

_space_group_name_H-M_alt    "P 1"
_space_group_IT_number       1

loop_
  _space_group_symop_operation_xyz
  'x, y, z'

loop_
  _atom_site_type_symbol
  _atom_site_label
  _atom_site_symmetry_multiplicity
  _atom_site_fract_x
  _atom_site_fract_y
  _atom_site_fract_z
  _atom_site_occupancy
  Cs  Cs1       1.0  0.11604755371809006  0.38311900198459625  0.8235082868486643  1.0000
  Cs  Cs2       1.0  0.5952703226357698  0.49341381154954433  0.3551527904346585  1.0000
  Cs  Cs3       1.0  0.23939603567123413  0.502484317868948  0.6487269327044487  1.0000
  Cs  Cs4       1.0  0.9868421033024788  0.9856729879975319  0.4119482524693012  1.0000
  H   H1        1.0  0.7914813905954361  0.6862480491399765  0.3750932812690735  1.0000
  H   H2        1.0  0.010450520552694798  0.7060070335865021  0.027582310140132904  1.0000
  H   H3        1.0  0.17309623956680298  0.46422895789146423  0.7690641283988953  1.0000
  H   H4        1.0  0.7664402574300766  0.9169362336397171  0.9696642402559519  1.0000
  S   S1        1.0  0.5599922239780426  0.8853437635116279  0.04234930872917175  1.0000
  S   S2        1.0  0.13203555345535278  0.19803458452224731  0.9188660681247711  1.0000
  S   S3        1.0  0.434890303760767  0.2535063773393631  0.8543588072061539  1.0000
  S   S4        1.0  0.21666980534791946  0.7304188292473555  0.8443520069122314  1.0000
  O   O1        1.0  0.518224114086479  0.8155139423906803  0.7653147629462183  1.0000
  O   O2        1.0  0.8446651400299743  0.794629106298089  0.3919838680885732  1.0000
  O   O3        1.0  0.19505882263183594  0.8158597871661186  0.7575953248888254  1.0000
  O   O4        1.0  0.2552554504945874  0.128199128434062  0.5682492229971103  1.0000
  O   O5        1.0  0.5402583196992055  0.16948917135596275  0.7586459965677932  1.0000
  O   O6        1.0  0.014406166970729828  0.16434793919324875  0.7213760833255947  1.0000
  O   O7        1.0  0.1298314994201064  0.6821788402739912  0.7531337013933808  1.0000
  O   O8        1.0  0.4296916328021325  0.9107283689081669  0.09242485603317618  1.0000
data_image157
_chemical_formula_structural       Cs4H4S4O8
_chemical_formula_sum              "Cs4 H4 S4 O8"
_cell_length_a       5.817371
_cell_length_b       6.411326074356613
_cell_length_c       12.038703921785974
_cell_angle_alpha    93.7344795294116
_cell_angle_beta     90.0
_cell_angle_gamma    116.97998093780937

_space_group_name_H-M_alt    "P 1"
_space_group_IT_number       1

loop_
  _space_group_symop_operation_xyz
  'x, y, z'

loop_
  _atom_site_type_symbol
  _atom_site_label
  _atom_site_symmetry_multiplicity
  _atom_site_fract_x
  _atom_site_fract_y
  _atom_site_fract_z
  _atom_site_occupancy
  Cs  Cs1       1.0  0.6886604093015194  0.38857975602149963  0.7653329111635685  1.0000
  Cs  Cs2       1.0  0.5976887606084347  0.2848790204152465  0.45047789439558983  1.0000
  Cs  Cs3       1.0  0.2750791758298874  0.6089303903281689  0.49008289631456137  1.0000
  Cs  Cs4       1.0  0.7666469141840935  0.21987159550189972  0.7214648723602295  1.0000
  H   H1        1.0  0.21249739825725555  0.8861977159976959  0.5787834525108337  1.0000
  H   H2        1.0  0.8822834268212318  0.4952143430709839  0.49570947512984276  1.0000
  H   H3        1.0  0.22613252699375153  0.3472241163253784  0.437776654958725  1.0000
  H   H4        1.0  0.002913370728492737  0.8079136908054352  0.47476544603705406  1.0000
  S   S1        1.0  0.997052937746048  0.44354861974716187  0.1479484927840531  1.0000
  S   S2        1.0  0.11690766364336014  0.05622291564941406  0.206502303481102  1.0000
  S   S3        1.0  0.6759444624185562  0.5726525709033012  0.6651736348867416  1.0000
  S   S4        1.0  0.7623709216713905  0.9445599056780338  0.5720458924770355  1.0000
  O   O1        1.0  0.19422387797385454  0.3180708568543196  0.05151728680357337  1.0000
  O   O2        1.0  0.5356189251178876  0.8341104127466679  0.8438222231343389  1.0000
  O   O3        1.0  0.8641783623024821  0.6366325691342354  0.018254922702908516  1.0000
  O   O4        1.0  0.9291931907646358  0.46626047836616635  0.21726420416962355  1.0000
  O   O5        1.0  0.4423093771911226  0.2994098651688546  0.8118899635737762  1.0000
  O   O6        1.0  0.931701198220253  0.8965882919728756  0.6281403861939907  1.0000
  O   O7        1.0  0.7264010710641742  0.2273001184221357  0.6003288587089628  1.0000
  O   O8        1.0  0.15017435234040022  0.2641050908714533  0.4441177383996546  1.0000
data_image158
_chemical_formula_structural       Cs4H4S4O8
_chemical_formula_sum              "Cs4 H4 S4 O8"
_cell_length_a       5.817371
_cell_length_b       6.411326074356613
_cell_length_c       12.038703921785974
_cell_angle_alpha    93.7344795294116
_cell_angle_beta     90.0
_cell_angle_gamma    116.97998093780937

_space_group_name_H-M_alt    "P 1"
_space_group_IT_number       1

loop_
  _space_group_symop_operation_xyz
  'x, y, z'

loop_
  _atom_site_type_symbol
  _atom_site_label
  _atom_site_symmetry_multiplicity
  _atom_site_fract_x
  _atom_site_fract_y
  _atom_site_fract_z
  _atom_site_occupancy
  Cs  Cs1       1.0  0.12101122364401817  0.3942142091691494  0.007155630737543106  1.0000
  Cs  Cs2       1.0  0.037089794874191284  0.12050784472376108  0.2524943873286247  1.0000
  Cs  Cs3       1.0  0.6202664114534855  0.5317127779126167  0.2665501884184778  1.0000
  Cs  Cs4       1.0  0.07100410759449005  0.7524460330605507  0.21598448231816292  1.0000
  H   H1        1.0  0.12975968420505524  0.6287678629159927  0.7741518318653107  1.0000
  H   H2        1.0  0.3975799297913909  0.8538562953472137  0.7460563331842422  1.0000
  H   H3        1.0  0.7086736112833023  0.6983663737773895  0.7218451499938965  1.0000
  H   H4        1.0  0.8638296276330948  0.031206130981445312  0.1568266712129116  1.0000
  S   S1        1.0  0.22535604238510132  0.20768629387021065  0.22683351300656796  1.0000
  S   S2        1.0  0.27490944415330887  0.6786233186721802  0.8059024512767792  1.0000
  S   S3        1.0  0.3995908126235008  0.392416350543499  0.6938828229904175  1.0000
  S   S4        1.0  0.8639018759131432  0.23383611254394054  0.5260883867740631  1.0000
  O   O1        1.0  0.12957870494574308  0.7538476381450891  0.2949765296652913  1.0000
  O   O2        1.0  0.5793565040221438  0.9687444064766169  0.47659899457357824  1.0000
  O   O3        1.0  0.940667849034071  0.43037065118551254  0.9705796502530575  1.0000
  O   O4        1.0  0.13825539126992226  0.6149249915033579  0.36834626633208245  1.0000
  O   O5        1.0  0.8409234083956107  0.46587998839095235  0.8047828372800723  1.0000
  O   O6        1.0  0.6091411858797073  0.18654285743832588  0.3800551160238683  1.0000
  O   O7        1.0  0.6650226269848645  0.4296686490997672  0.7543442461173981  1.0000
  O   O8        1.0  0.866822199197486  0.3993974067270756  0.1117102736607194  1.0000
data_image159
_chemical_formula_structural       Cs4H4S4O8
_chemical_formula_sum              "Cs4 H4 S4 O8"
_cell_length_a       5.817371
_cell_length_b       6.411326074356613
_cell_length_c       12.038703921785974
_cell_angle_alpha    93.7344795294116
_cell_angle_beta     90.0
_cell_angle_gamma    116.97998093780937

_space_group_name_H-M_alt    "P 1"
_space_group_IT_number       1

loop_
  _space_group_symop_operation_xyz
  'x, y, z'

loop_
  _atom_site_type_symbol
  _atom_site_label
  _atom_site_symmetry_multiplicity
  _atom_site_fract_x
  _atom_site_fract_y
  _atom_site_fract_z
  _atom_site_occupancy
  Cs  Cs1       1.0  0.04005269333720207  0.25274015963077545  0.8504504598677158  1.0000
  Cs  Cs2       1.0  0.42544521391391754  0.31405539344996214  0.08145443210378289  1.0000
  Cs  Cs3       1.0  0.4417729638516903  0.4721670299768448  0.7097312887199223  1.0000
  Cs  Cs4       1.0  0.6853880286216736  0.2787087634205818  0.08823161758482456  1.0000
  H   H1        1.0  0.5542697161436081  0.03005698323249817  0.4520110785961151  1.0000
  H   H2        1.0  0.762331104837358  0.11464163288474083  0.9975673295557499  1.0000
  H   H3        1.0  0.8192301541566849  0.11749023199081421  0.5738056004047394  1.0000
  H   H4        1.0  0.18872202932834625  0.8489621877670288  0.6661273017525673  1.0000
  S   S1        1.0  0.4251822233200073  0.9036212041974068  0.0725510474294424  1.0000
  S   S2        1.0  0.04526292532682419  0.29207494854927063  0.8932903185486794  1.0000
  S   S3        1.0  0.6324718371033669  0.07399207353591919  0.3930947184562683  1.0000
  S   S4        1.0  0.3551418110728264  0.3706727586686611  0.3448791652917862  1.0000
  O   O1        1.0  0.25371766835451126  0.7404469382017851  0.10671972343698144  1.0000
  O   O2        1.0  0.8240761235356331  0.27760714665055275  0.68404830689542  1.0000
  O   O3        1.0  0.4545401344075799  0.0449654757976532  0.07687282748520374  1.0000
  O   O4        1.0  0.9736377922818065  0.8420621221885085  0.46558412874583155  1.0000
  O   O5        1.0  0.043827467306982726  0.7443024893291295  0.43940812011715025  1.0000
  O   O6        1.0  0.9588808864355087  0.23994390293955803  0.6836089119315147  1.0000
  O   O7        1.0  0.6065283352509141  0.04946356581058353  0.30408853897824883  1.0000
  O   O8        1.0  0.38556512258946896  0.25163455680012703  0.6161268246360123  1.0000
data_image160
_chemical_formula_structural       Cs4H4S4O8
_chemical_formula_sum              "Cs4 H4 S4 O8"
_cell_length_a       5.817371
_cell_length_b       6.411326074356613
_cell_length_c       12.038703921785974
_cell_angle_alpha    93.7344795294116
_cell_angle_beta     90.0
_cell_angle_gamma    116.97998093780937

_space_group_name_H-M_alt    "P 1"
_space_group_IT_number       1

loop_
  _space_group_symop_operation_xyz
  'x, y, z'

loop_
  _atom_site_type_symbol
  _atom_site_label
  _atom_site_symmetry_multiplicity
  _atom_site_fract_x
  _atom_site_fract_y
  _atom_site_fract_z
  _atom_site_occupancy
  Cs  Cs1       1.0  0.1976856216788292  0.3837752044200897  0.8224394731223583  1.0000
  Cs  Cs2       1.0  0.001096881926059723  0.5432768100872636  0.6242481879889965  1.0000
  Cs  Cs3       1.0  0.12362641096115112  0.8175060339272022  0.5647461391054094  1.0000
  Cs  Cs4       1.0  0.4753205180168152  0.3034091368317604  0.5555573254823685  1.0000
  H   H1        1.0  0.3121676594018936  0.6817422956228256  0.22716963291168213  1.0000
  H   H2        1.0  0.9301173593848944  0.893416840583086  0.5807676874101162  1.0000
  H   H3        1.0  0.20338870584964752  0.9538900852203369  0.8765197992324829  1.0000
  H   H4        1.0  0.30593614280223846  0.9766794741153717  0.9904665015637875  1.0000
  S   S1        1.0  0.5425917208194733  0.8696356080472469  0.8077755607664585  1.0000
  S   S2        1.0  0.13257813453674316  0.5347263216972351  0.272034727036953  1.0000
  S   S3        1.0  0.14923421666026115  0.24299556016921997  0.3752647787332535  1.0000
  S   S4        1.0  0.28564441204071045  0.40994579810649157  0.47397927939891815  1.0000
  O   O1        1.0  0.7741019884124398  0.8525418620556593  0.4662459222599864  1.0000
  O   O2        1.0  0.4368629327509552  0.9914347697049379  0.5410718536004424  1.0000
  O   O3        1.0  0.16599551402032375  0.07371250540018082  0.3119554575532675  1.0000
  O   O4        1.0  0.9673282904550433  0.34371299552731216  0.4800556661793962  1.0000
  O   O5        1.0  0.6584533458808437  0.22478261194191873  0.42520066327415407  1.0000
  O   O6        1.0  0.9036220088601112  0.793056059628725  0.9789638943038881  1.0000
  O   O7        1.0  0.1980307619087398  0.48195821372792125  0.2098565544001758  1.0000
  O   O8        1.0  0.3589029712602496  0.5586195178329945  0.952960173599422  1.0000
data_image161
_chemical_formula_structural       Cs4H4S4O8
_chemical_formula_sum              "Cs4 H4 S4 O8"
_cell_length_a       5.817371
_cell_length_b       6.411326074356613
_cell_length_c       12.038703921785974
_cell_angle_alpha    93.7344795294116
_cell_angle_beta     90.0
_cell_angle_gamma    116.97998093780937

_space_group_name_H-M_alt    "P 1"
_space_group_IT_number       1

loop_
  _space_group_symop_operation_xyz
  'x, y, z'

loop_
  _atom_site_type_symbol
  _atom_site_label
  _atom_site_symmetry_multiplicity
  _atom_site_fract_x
  _atom_site_fract_y
  _atom_site_fract_z
  _atom_site_occupancy
  Cs  Cs1       1.0  0.3990410268306732  0.1469009555876255  0.5525430180132389  1.0000
  Cs  Cs2       1.0  0.7479748670011759  0.41810937225818634  0.6486809100024402  1.0000
  Cs  Cs3       1.0  0.24415501952171326  0.162321574985981  0.7621912662871182  1.0000
  Cs  Cs4       1.0  0.10388661175966263  0.5080111995339394  0.6939223576337099  1.0000
  H   H1        1.0  0.43281592428684235  0.9992728978395462  0.9466044902801514  1.0000
  H   H2        1.0  0.715146622620523  0.6852704659104347  0.3432053104043007  1.0000
  H   H3        1.0  0.16505517065525055  0.8166813552379608  0.5974010825157166  1.0000
  H   H4        1.0  0.4749394655227661  0.4240594208240509  0.23089837282896042  1.0000
  S   S1        1.0  0.26645517349243164  0.9171128049492836  0.42700377479195595  1.0000
  S   S2        1.0  0.6091932132840157  0.20480000972747803  0.03511318564414978  1.0000
  S   S3        1.0  0.2799987643957138  0.5420929044485092  0.7848449796438217  1.0000
  S   S4        1.0  0.48558879271149635  0.02930075762560591  0.25565649569034576  1.0000
  O   O1        1.0  0.8031323719769716  0.5271940510720015  0.38868344156071544  1.0000
  O   O2        1.0  0.8465680116205476  0.6982604004442692  0.15389792784117162  1.0000
  O   O3        1.0  0.764433104544878  0.011874936521053314  0.523721719160676  1.0000
  O   O4        1.0  0.28020656388252974  0.019688197877258062  0.030510770389810205  1.0000
  O   O5        1.0  0.6490375276189297  0.43986308854073286  0.2586381355067715  1.0000
  O   O6        1.0  0.8411477655172348  0.9987713061273098  0.11712590104434639  1.0000
  O   O7        1.0  0.7614469025284052  0.8938481318764389  0.07800656952895224  1.0000
  O   O8        1.0  0.042477549402974546  0.21127898432314396  0.19951196387410164  1.0000
data_image162
_chemical_formula_structural       Cs4H4S4O8
_chemical_formula_sum              "Cs4 H4 S4 O8"
_cell_length_a       5.817371
_cell_length_b       6.411326074356613
_cell_length_c       12.038703921785974
_cell_angle_alpha    93.7344795294116
_cell_angle_beta     90.0
_cell_angle_gamma    116.97998093780937

_space_group_name_H-M_alt    "P 1"
_space_group_IT_number       1

loop_
  _space_group_symop_operation_xyz
  'x, y, z'

loop_
  _atom_site_type_symbol
  _atom_site_label
  _atom_site_symmetry_multiplicity
  _atom_site_fract_x
  _atom_site_fract_y
  _atom_site_fract_z
  _atom_site_occupancy
  Cs  Cs1       1.0  0.45261775702238083  0.6880051493644714  0.5755902864038944  1.0000
  Cs  Cs2       1.0  0.26835284382104874  0.6291580833494663  0.6183908781968057  1.0000
  Cs  Cs3       1.0  0.8111491724848747  0.6205565575510263  0.9997220491059124  1.0000
  Cs  Cs4       1.0  0.500091090798378  0.4878593534231186  0.7249566223472357  1.0000
  H   H1        1.0  0.6001821905374527  0.1968708038330078  0.8778396248817444  1.0000
  H   H2        1.0  0.7238864088431001  0.45970089361071587  0.10195410251617432  1.0000
  H   H3        1.0  0.42473411560058594  0.9890519976615906  0.8853659331798553  1.0000
  H   H4        1.0  0.6987139135599136  0.19967442750930786  0.4224327653646469  1.0000
  S   S1        1.0  0.27478793263435364  0.041431840509176254  0.42324576154351234  1.0000
  S   S2        1.0  0.7882295101881027  0.07245850563049316  0.9318013936281204  1.0000
  S   S3        1.0  0.4794730953872204  0.7146229892969131  0.7295553386211395  1.0000
  S   S4        1.0  0.47656142711639404  0.8738611806184053  0.33222532272338867  1.0000
  O   O1        1.0  0.2351957242935896  0.8429855704307556  0.15279572224244475  1.0000
  O   O2        1.0  0.39572507940465584  0.2818419001996517  0.25317769800312817  1.0000
  O   O3        1.0  0.9888178752735257  0.7246532291173935  0.4488551914691925  1.0000
  O   O4        1.0  0.34073350206017494  0.806970926001668  0.5039469402981922  1.0000
  O   O5        1.0  0.9928221083246171  0.8381142208818346  0.2822574411984533  1.0000
  O   O6        1.0  0.9915926158428192  0.699185986071825  0.695004293549573  1.0000
  O   O7        1.0  0.07284658774733543  0.401488471776247  0.2387332480866462  1.0000
  O   O8        1.0  0.6646551229641773  0.08431211672723293  0.999779443256557  1.0000
data_image163
_chemical_formula_structural       Cs4H4S4O8
_chemical_formula_sum              "Cs4 H4 S4 O8"
_cell_length_a       5.817371
_cell_length_b       6.411326074356613
_cell_length_c       12.038703921785974
_cell_angle_alpha    93.7344795294116
_cell_angle_beta     90.0
_cell_angle_gamma    116.97998093780937

_space_group_name_H-M_alt    "P 1"
_space_group_IT_number       1

loop_
  _space_group_symop_operation_xyz
  'x, y, z'

loop_
  _atom_site_type_symbol
  _atom_site_label
  _atom_site_symmetry_multiplicity
  _atom_site_fract_x
  _atom_site_fract_y
  _atom_site_fract_z
  _atom_site_occupancy
  Cs  Cs1       1.0  0.6308909058570862  0.7892831191420555  0.8439517021179199  1.0000
  Cs  Cs2       1.0  0.1421443074941635  0.9021908827126026  0.6174449468962848  1.0000
  Cs  Cs3       1.0  0.8809507079422474  0.7692379802465439  0.21547867637127638  1.0000
  Cs  Cs4       1.0  0.7101843059062958  0.3377991244196892  0.7618622146546841  1.0000
  H   H1        1.0  0.5734335035085678  0.4306757152080536  0.8557306230068207  1.0000
  H   H2        1.0  0.1510958895087242  0.2919350899755955  0.768508106470108  1.0000
  H   H3        1.0  0.12905389070510864  0.9825060367584229  0.6732590198516846  1.0000
  H   H4        1.0  0.12038779258728027  0.5063885748386383  0.8523974157869816  1.0000
  S   S1        1.0  0.6487694680690765  0.10518151521682739  0.76771473698318  1.0000
  S   S2        1.0  0.8350436761975288  0.9932167828083038  0.7102197781205177  1.0000
  S   S3        1.0  0.3801538832485676  0.8857949897646904  0.5746776163578033  1.0000
  S   S4        1.0  0.14600996673107147  0.9370572427287698  0.7860875725746155  1.0000
  O   O1        1.0  0.729995328001678  0.16368881426751614  0.6067773713730276  1.0000
  O   O2        1.0  0.8700230506365187  0.6395651362836361  0.13987849443219602  1.0000
  O   O3        1.0  0.265979559160769  0.7493673041462898  0.25586101971566677  1.0000
  O   O4        1.0  0.5216549560427666  0.881521814968437  0.383298295957502  1.0000
  O   O5        1.0  0.2858073809184134  0.5256886114366353  0.14403557928744704  1.0000
  O   O6        1.0  0.9089352041482925  0.9405037648975849  0.8215750787203433  1.0000
  O   O7        1.0  0.5546636525541544  0.688740773126483  0.5695335022173822  1.0000
  O   O8        1.0  0.7560686111683026  0.10114414244890213  0.0076019493862986565  1.0000
data_image164
_chemical_formula_structural       Cs4H4S4O8
_chemical_formula_sum              "Cs4 H4 S4 O8"
_cell_length_a       5.817371
_cell_length_b       6.411326074356613
_cell_length_c       12.038703921785974
_cell_angle_alpha    93.7344795294116
_cell_angle_beta     90.0
_cell_angle_gamma    116.97998093780937

_space_group_name_H-M_alt    "P 1"
_space_group_IT_number       1

loop_
  _space_group_symop_operation_xyz
  'x, y, z'

loop_
  _atom_site_type_symbol
  _atom_site_label
  _atom_site_symmetry_multiplicity
  _atom_site_fract_x
  _atom_site_fract_y
  _atom_site_fract_z
  _atom_site_occupancy
  Cs  Cs1       1.0  0.334681399166584  0.5822276882827282  0.8312588557600975  1.0000
  Cs  Cs2       1.0  0.8180430829524994  0.14505002181977034  0.4336684010922909  1.0000
  Cs  Cs3       1.0  0.08588411286473274  0.07947808131575584  0.8341665184125304  1.0000
  Cs  Cs4       1.0  0.23073934763669968  0.41740668565034866  0.995783805847168  1.0000
  H   H1        1.0  0.24169225990772247  0.10745131969451904  0.4648790955543518  1.0000
  H   H2        1.0  0.565405840985477  0.3744874410331249  0.11131852120161057  1.0000
  H   H3        1.0  0.36207103729248047  0.1871437430381775  0.9754393994808197  1.0000
  H   H4        1.0  0.7963218688964844  0.288063645362854  0.523969616740942  1.0000
  S   S1        1.0  0.45232656598091125  0.4180644638836384  0.702253257855773  1.0000
  S   S2        1.0  0.4828709587454796  0.2855094373226166  0.8218759335577488  1.0000
  S   S3        1.0  0.2226179763674736  0.8732063472270966  0.4749981015920639  1.0000
  S   S4        1.0  0.13754357397556305  0.6442730231210589  0.1567867398262024  1.0000
  O   O1        1.0  0.40927020320668817  0.37682000547647476  0.8810603376477957  1.0000
  O   O2        1.0  0.5325623491662554  0.2235081009566784  0.6401093015447259  1.0000
  O   O3        1.0  0.3480575829744339  0.8740948960185051  0.6643025260418653  1.0000
  O   O4        1.0  0.2472382066771388  0.6756093591684476  0.1707441571925301  1.0000
  O   O5        1.0  0.020184329245239496  0.32404689071699977  0.7844923589145765  1.0000
  O   O6        1.0  0.38668712228536606  0.8489461839199066  0.29873071692418307  1.0000
  O   O7        1.0  0.20532396715134382  0.9492834862321615  0.7726080969441682  1.0000
  O   O8        1.0  0.8200001751538366  0.02612934075295925  0.10621987236663699  1.0000
data_image165
_chemical_formula_structural       Cs4H4S4O8
_chemical_formula_sum              "Cs4 H4 S4 O8"
_cell_length_a       5.817371
_cell_length_b       6.411326074356613
_cell_length_c       12.038703921785974
_cell_angle_alpha    93.7344795294116
_cell_angle_beta     90.0
_cell_angle_gamma    116.97998093780937

_space_group_name_H-M_alt    "P 1"
_space_group_IT_number       1

loop_
  _space_group_symop_operation_xyz
  'x, y, z'

loop_
  _atom_site_type_symbol
  _atom_site_label
  _atom_site_symmetry_multiplicity
  _atom_site_fract_x
  _atom_site_fract_y
  _atom_site_fract_z
  _atom_site_occupancy
  Cs  Cs1       1.0  0.13669338822364807  0.24467477202415466  0.5155222415924072  1.0000
  Cs  Cs2       1.0  0.6733803972601891  0.8031838638707995  0.6283201661572093  1.0000
  Cs  Cs3       1.0  0.3863568417727947  0.035346902906894684  0.9646959351375699  1.0000
  Cs  Cs4       1.0  0.28786781430244446  0.303953193128109  0.9198977965861559  1.0000
  H   H1        1.0  0.8798776566982269  0.6713243275880814  0.6338785290718079  1.0000
  H   H2        1.0  0.5120560042560101  0.07299783453345299  0.5347939766943455  1.0000
  H   H3        1.0  0.038730621337890625  0.6028499603271484  0.14724600315093994  1.0000
  H   H4        1.0  0.4381296634674072  0.7230143845081329  0.8270929530262947  1.0000
  S   S1        1.0  0.202551007270813  0.39596547931432724  0.4683081693947315  1.0000
  S   S2        1.0  0.02400471270084381  0.5344775319099426  0.2213171124458313  1.0000
  S   S3        1.0  0.6607932634651661  0.7384351417422295  0.04911485314369202  1.0000
  S   S4        1.0  0.47015395388007164  0.05110306665301323  0.805444985628128  1.0000
  O   O1        1.0  0.27002823492512107  0.7154867295175791  0.24899393180385232  1.0000
  O   O2        1.0  0.7095162309706211  0.5545345693826675  0.08367639826610684  1.0000
  O   O3        1.0  0.5654688067734241  0.23529109358787537  0.5547419507056475  1.0000
  O   O4        1.0  0.851509309373796  0.8323582793818787  0.32713233452523127  1.0000
  O   O5        1.0  0.3940947148948908  0.07706033904105425  0.11190026119584218  1.0000
  O   O6        1.0  0.7058724388480186  0.04436137527227402  0.3616044278605841  1.0000
  O   O7        1.0  0.8581943437457085  0.8901360020972788  0.10060477978549898  1.0000
  O   O8        1.0  0.5373236521845683  0.7152156438678503  0.9861363111995161  1.0000
data_image166
_chemical_formula_structural       Cs4H4S4O8
_chemical_formula_sum              "Cs4 H4 S4 O8"
_cell_length_a       5.817371
_cell_length_b       6.411326074356613
_cell_length_c       12.038703921785974
_cell_angle_alpha    93.7344795294116
_cell_angle_beta     90.0
_cell_angle_gamma    116.97998093780937

_space_group_name_H-M_alt    "P 1"
_space_group_IT_number       1

loop_
  _space_group_symop_operation_xyz
  'x, y, z'

loop_
  _atom_site_type_symbol
  _atom_site_label
  _atom_site_symmetry_multiplicity
  _atom_site_fract_x
  _atom_site_fract_y
  _atom_site_fract_z
  _atom_site_occupancy
  Cs  Cs1       1.0  0.3798615410923958  0.0784294568002224  0.4220155440270901  1.0000
  Cs  Cs2       1.0  0.4825732074677944  0.47280051466077566  0.7800989114912227  1.0000
  Cs  Cs3       1.0  0.5896236300468445  0.28496871143579483  0.6270182454027236  1.0000
  Cs  Cs4       1.0  0.23265495151281357  0.5986807346343994  0.520535672083497  1.0000
  H   H1        1.0  0.8910239338874817  0.7676254957914352  0.25498250126838684  1.0000
  H   H2        1.0  0.2600748371332884  0.33686723560094833  0.2984299995005131  1.0000
  H   H3        1.0  0.8226640820503235  0.2576954662799835  0.9557042121887207  1.0000
  H   H4        1.0  0.13178543746471405  0.6210575699806213  0.8974975273013115  1.0000
  S   S1        1.0  0.0413002073764801  0.6186025999486446  0.08013120479881763  1.0000
  S   S2        1.0  0.29569559544324875  0.8601400852203369  0.6707191057503223  1.0000
  S   S3        1.0  0.7796520590782166  0.9691412672400475  0.43396809697151184  1.0000
  S   S4        1.0  0.372826986014843  0.43229410238564014  0.6759976893663406  1.0000
  O   O1        1.0  0.5898436279967427  0.8198845870792866  0.18135826103389263  1.0000
  O   O2        1.0  0.6761758141219616  0.9131332840770483  0.18656632024794817  1.0000
  O   O3        1.0  0.019041888415813446  0.17794888466596603  0.8178500272333622  1.0000
  O   O4        1.0  0.06557892635464668  0.9169440165860578  0.3628588811843656  1.0000
  O   O5        1.0  0.17158122500404716  0.7480894117616117  0.16452843567822129  1.0000
  O   O6        1.0  0.5260782912373543  0.13056403771042824  0.792473997164052  1.0000
  O   O7        1.0  0.4652512241154909  0.7115304828621447  0.8845158361364156  1.0000
  O   O8        1.0  0.013484171591699123  0.21527068689465523  0.13850593380630016  1.0000
data_image167
_chemical_formula_structural       Cs4H4S4O8
_chemical_formula_sum              "Cs4 H4 S4 O8"
_cell_length_a       5.817371
_cell_length_b       6.411326074356613
_cell_length_c       12.038703921785974
_cell_angle_alpha    93.7344795294116
_cell_angle_beta     90.0
_cell_angle_gamma    116.97998093780937

_space_group_name_H-M_alt    "P 1"
_space_group_IT_number       1

loop_
  _space_group_symop_operation_xyz
  'x, y, z'

loop_
  _atom_site_type_symbol
  _atom_site_label
  _atom_site_symmetry_multiplicity
  _atom_site_fract_x
  _atom_site_fract_y
  _atom_site_fract_z
  _atom_site_occupancy
  Cs  Cs1       1.0  0.12196070700883865  0.6222623065114021  0.20708700269460678  1.0000
  Cs  Cs2       1.0  0.6677164398133755  0.632276015356183  0.021985668339766562  1.0000
  Cs  Cs3       1.0  0.5385994762182236  0.6200731247663498  0.9735775017179549  1.0000
  Cs  Cs4       1.0  0.4441189542412758  0.49989035725593567  0.6935754586011171  1.0000
  H   H1        1.0  0.6745355278253555  0.45885828137397766  0.4501907229423523  1.0000
  H   H2        1.0  0.9445674195885658  0.3914226144552231  0.8123032785952091  1.0000
  H   H3        1.0  0.036466389894485474  0.3180081844329834  0.9113458096981049  1.0000
  H   H4        1.0  0.7148823440074921  0.23656395077705383  0.3721628114581108  1.0000
  S   S1        1.0  0.24433466792106628  0.09158582985401154  0.8412120379507542  1.0000
  S   S2        1.0  0.7211717665195465  0.6297940611839294  0.7998854443430901  1.0000
  S   S3        1.0  0.9611987806856632  0.219123974442482  0.22353720664978027  1.0000
  S   S4        1.0  0.31387557089328766  0.9818260790780187  0.9185573011636734  1.0000
  O   O1        1.0  0.5236016572453082  0.6203969605267048  0.59188735159114  1.0000
  O   O2        1.0  0.39746790938079357  0.3878183662891388  0.964113108580932  1.0000
  O   O3        1.0  0.1135255116969347  0.9183862060308456  0.8501988109201193  1.0000
  O   O4        1.0  0.6207003928720951  0.35826730472035706  0.2524188148963731  1.0000
  O   O5        1.0  0.32420500041916966  0.6550785969011486  0.5904229334555566  1.0000
  O   O6        1.0  0.4770365282893181  0.09761368855834007  0.9193457993678749  1.0000
  O   O7        1.0  0.9583821473643184  0.6774054570123553  0.8458543901797384  1.0000
  O   O8        1.0  0.660898887028452  0.8463839367032051  0.5063573746010661  1.0000
data_image168
_chemical_formula_structural       Cs4H4S4O8
_chemical_formula_sum              "Cs4 H4 S4 O8"
_cell_length_a       5.817371
_cell_length_b       6.411326074356613
_cell_length_c       12.038703921785974
_cell_angle_alpha    93.7344795294116
_cell_angle_beta     90.0
_cell_angle_gamma    116.97998093780937

_space_group_name_H-M_alt    "P 1"
_space_group_IT_number       1

loop_
  _space_group_symop_operation_xyz
  'x, y, z'

loop_
  _atom_site_type_symbol
  _atom_site_label
  _atom_site_symmetry_multiplicity
  _atom_site_fract_x
  _atom_site_fract_y
  _atom_site_fract_z
  _atom_site_occupancy
  Cs  Cs1       1.0  0.8437964841723442  0.1325068511068821  0.731565561145544  1.0000
  Cs  Cs2       1.0  0.6213318333029747  0.22256972547620535  0.4296658292878419  1.0000
  Cs  Cs3       1.0  0.8577793762087822  0.6672654077410698  0.5999331967905164  1.0000
  Cs  Cs4       1.0  0.5426266267895699  0.7205176949501038  0.33514283038675785  1.0000
  H   H1        1.0  0.18607044219970703  0.8651943206787109  0.6005434691905975  1.0000
  H   H2        1.0  0.11156973103061318  0.7749475315213203  0.49929893761873245  1.0000
  H   H3        1.0  0.6495400071144104  0.1527625322341919  0.6568233966827393  1.0000
  H   H4        1.0  0.13086460530757904  0.11507183313369751  0.749834917485714  1.0000
  S   S1        1.0  0.026088804006576538  0.4475843906402588  0.6997899115085602  1.0000
  S   S2        1.0  0.909016564488411  0.4503138065338135  0.2247784659266472  1.0000
  S   S3        1.0  0.5775618441402912  0.7678493857383728  0.7865161001682281  1.0000
  S   S4        1.0  0.9730298332870007  0.8972314707934856  0.06816050410270691  1.0000
  O   O1        1.0  0.9205132857896388  0.5592514481395483  0.5958694256842136  1.0000
  O   O2        1.0  0.49004277866333723  0.6089962739497423  0.4109163391403854  1.0000
  O   O3        1.0  0.49782824143767357  0.283056415617466  0.811515498906374  1.0000
  O   O4        1.0  0.5587077178061008  0.7331534123513848  0.6057545201620087  1.0000
  O   O5        1.0  0.05748718697577715  0.8348271944560111  0.47776634828187525  1.0000
  O   O6        1.0  0.423835389316082  0.44434280321002007  0.1087709260173142  1.0000
  O   O7        1.0  0.0037728510797023773  0.23279103240929544  0.07698120991699398  1.0000
  O   O8        1.0  0.9023188554565422  0.062237996608018875  0.535240878816694  1.0000
data_image169
_chemical_formula_structural       Cs4H4S4O8
_chemical_formula_sum              "Cs4 H4 S4 O8"
_cell_length_a       5.817371
_cell_length_b       6.411326074356613
_cell_length_c       12.038703921785974
_cell_angle_alpha    93.7344795294116
_cell_angle_beta     90.0
_cell_angle_gamma    116.97998093780937

_space_group_name_H-M_alt    "P 1"
_space_group_IT_number       1

loop_
  _space_group_symop_operation_xyz
  'x, y, z'

loop_
  _atom_site_type_symbol
  _atom_site_label
  _atom_site_symmetry_multiplicity
  _atom_site_fract_x
  _atom_site_fract_y
  _atom_site_fract_z
  _atom_site_occupancy
  Cs  Cs1       1.0  0.408634752035141  0.39913205429911613  0.06905706226825714  1.0000
  Cs  Cs2       1.0  0.3591998480260372  0.46592479199171066  0.8420884353108704  1.0000
  Cs  Cs3       1.0  0.7449971027672291  0.3914972357451916  0.20188212161883712  1.0000
  Cs  Cs4       1.0  0.8288175761699677  0.2931417003273964  0.04482930153608322  1.0000
  H   H1        1.0  0.7592203766107559  0.33863258361816406  0.23791426420211792  1.0000
  H   H2        1.0  0.7844519701320678  0.7658278793096542  0.9852614253759384  1.0000
  H   H3        1.0  0.9427393972873688  0.21098816394805908  0.12506034970283508  1.0000
  H   H4        1.0  0.39750511944293976  0.8367552757263184  0.037283726036548615  1.0000
  S   S1        1.0  0.94109708070755  0.5970582999289036  0.29472289606928825  1.0000
  S   S2        1.0  0.45025433599948883  0.6057970821857452  0.2215789631009102  1.0000
  S   S3        1.0  0.9002035409212112  0.4517524763941765  0.15797092020511627  1.0000
  S   S4        1.0  0.6923093497753143  0.2697428558021784  0.758461594581604  1.0000
  O   O1        1.0  0.29308020509779453  0.748904649168253  0.5818366697058082  1.0000
  O   O2        1.0  0.010540202260017395  0.49700773507356644  0.2654621764086187  1.0000
  O   O3        1.0  0.4151112688705325  0.16359034180641174  0.15798792988061905  1.0000
  O   O4        1.0  0.6944753918796778  0.7290232430677861  0.7924237990664551  1.0000
  O   O5        1.0  0.1171547626145184  0.3252930729649961  0.5534232943318784  1.0000
  O   O6        1.0  0.7657642289996147  0.45493048802018166  0.6413588002324104  1.0000
  O   O7        1.0  0.4989522583782673  0.7147426484152675  0.822071920381859  1.0000
  O   O8        1.0  0.9353988622315228  0.5589551590383053  0.1752875493839383  1.0000
data_image170
_chemical_formula_structural       Cs4H4S4O8
_chemical_formula_sum              "Cs4 H4 S4 O8"
_cell_length_a       5.817371
_cell_length_b       6.411326074356613
_cell_length_c       12.038703921785974
_cell_angle_alpha    93.7344795294116
_cell_angle_beta     90.0
_cell_angle_gamma    116.97998093780937

_space_group_name_H-M_alt    "P 1"
_space_group_IT_number       1

loop_
  _space_group_symop_operation_xyz
  'x, y, z'

loop_
  _atom_site_type_symbol
  _atom_site_label
  _atom_site_symmetry_multiplicity
  _atom_site_fract_x
  _atom_site_fract_y
  _atom_site_fract_z
  _atom_site_occupancy
  Cs  Cs1       1.0  0.9737876057624817  0.09489165619015694  0.5448014251887798  1.0000
  Cs  Cs2       1.0  0.2702470198273659  0.13483911100775003  0.5711350829806179  1.0000
  Cs  Cs3       1.0  0.4193580634891987  0.8601656965911388  0.14575336407870054  1.0000
  Cs  Cs4       1.0  0.8684460744261742  0.13602325320243835  0.23906203545629978  1.0000
  H   H1        1.0  0.20818503201007843  0.47375258803367615  0.2885449528694153  1.0000
  H   H2        1.0  0.9739360022358596  0.2349461391568184  0.5864886492490768  1.0000
  H   H3        1.0  0.868618369102478  0.2156762182712555  0.8268241882324219  1.0000
  H   H4        1.0  0.5626077502965927  0.18485531210899353  0.9444901049137115  1.0000
  S   S1        1.0  0.614559143781662  0.9399005621671677  0.7516511715948582  1.0000
  S   S2        1.0  0.21255694329738617  0.023955166339874268  0.4550391659140587  1.0000
  S   S3        1.0  0.9352284707129002  0.4559771791100502  0.4031662791967392  1.0000
  S   S4        1.0  0.3249931074678898  0.34718262031674385  0.22772233188152313  1.0000
  O   O1        1.0  0.11212329240515828  0.6505915019661188  0.6826104475185275  1.0000
  O   O2        1.0  0.712510110810399  0.6458312477916479  0.47429233975708485  1.0000
  O   O3        1.0  0.49536137748509645  0.47119902819395065  0.26662001200020313  1.0000
  O   O4        1.0  0.9282503575086594  0.15866485773585737  0.9353486413019709  1.0000
  O   O5        1.0  0.5304685505107045  0.7592753018252552  0.39412251103203744  1.0000
  O   O6        1.0  0.8023936673998833  0.15268566086888313  0.11753216944634914  1.0000
  O   O7        1.0  0.9917902024462819  0.2834296692162752  0.5420720782130957  1.0000
  O   O8        1.0  0.862478812225163  0.46298990212380886  0.8945556790567935  1.0000
data_image171
_chemical_formula_structural       Cs4H4S4O8
_chemical_formula_sum              "Cs4 H4 S4 O8"
_cell_length_a       5.817371
_cell_length_b       6.411326074356613
_cell_length_c       12.038703921785974
_cell_angle_alpha    93.7344795294116
_cell_angle_beta     90.0
_cell_angle_gamma    116.97998093780937

_space_group_name_H-M_alt    "P 1"
_space_group_IT_number       1

loop_
  _space_group_symop_operation_xyz
  'x, y, z'

loop_
  _atom_site_type_symbol
  _atom_site_label
  _atom_site_symmetry_multiplicity
  _atom_site_fract_x
  _atom_site_fract_y
  _atom_site_fract_z
  _atom_site_occupancy
  Cs  Cs1       1.0  0.48547712713479996  0.34512612968683243  0.6134370528161526  1.0000
  Cs  Cs2       1.0  0.7304117046296597  0.10988924466073513  0.3554042032919824  1.0000
  Cs  Cs3       1.0  0.4453670345246792  0.2858974412083626  0.42840128345414996  1.0000
  Cs  Cs4       1.0  0.39952751249074936  0.09864435344934464  0.41172540187835693  1.0000
  H   H1        1.0  0.8085894584655762  0.4535887837409973  0.18019360303878784  1.0000
  H   H2        1.0  0.7781310370191932  0.7400632575154305  0.3788064979016781  1.0000
  H   H3        1.0  0.30606040358543396  0.9705998301506042  0.7755086123943329  1.0000
  H   H4        1.0  0.9283243715763092  0.5268597900867462  0.41101571917533875  1.0000
  S   S1        1.0  0.6618954837322235  0.7538919858634472  0.9439964815974236  1.0000
  S   S2        1.0  0.4369227737188339  0.9392862319946289  0.4367551617324352  1.0000
  S   S3        1.0  0.10270370543003082  0.5140173472464085  0.7305311858654022  1.0000
  S   S4        1.0  0.003656391054391861  0.49642736092209816  0.7679641395807266  1.0000
  O   O1        1.0  0.9018392427824438  0.8563104700297117  0.11518910946324468  1.0000
  O   O2        1.0  0.8800872005522251  0.33154515735805035  0.5019173370674253  1.0000
  O   O3        1.0  0.03313255403190851  0.31073497980833054  0.9980547670274973  1.0000
  O   O4        1.0  0.40507968235760927  0.15432616136968136  0.0280875398311764  1.0000
  O   O5        1.0  0.13194019393995404  0.2919384492561221  0.08880121895344928  1.0000
  O   O6        1.0  0.06264221668243408  0.6427933908998966  0.9822442810982466  1.0000
  O   O7        1.0  0.35394551511853933  0.020790507551282644  0.48515626206062734  1.0000
  O   O8        1.0  0.9141205205814913  0.3183878231793642  0.10203259531408548  1.0000
data_image172
_chemical_formula_structural       Cs4H4S4O8
_chemical_formula_sum              "Cs4 H4 S4 O8"
_cell_length_a       5.817371
_cell_length_b       6.411326074356613
_cell_length_c       12.038703921785974
_cell_angle_alpha    93.7344795294116
_cell_angle_beta     90.0
_cell_angle_gamma    116.97998093780937

_space_group_name_H-M_alt    "P 1"
_space_group_IT_number       1

loop_
  _space_group_symop_operation_xyz
  'x, y, z'

loop_
  _atom_site_type_symbol
  _atom_site_label
  _atom_site_symmetry_multiplicity
  _atom_site_fract_x
  _atom_site_fract_y
  _atom_site_fract_z
  _atom_site_occupancy
  Cs  Cs1       1.0  0.26502567529678345  0.5791034214198589  0.35789642110466957  1.0000
  Cs  Cs2       1.0  0.8718045055866241  0.08916604518890381  0.7515137740410864  1.0000
  Cs  Cs3       1.0  0.7227764800190926  0.6626701280474663  0.5561118344776332  1.0000
  Cs  Cs4       1.0  0.7861514016985893  0.8898367136716843  0.7476565334945917  1.0000
  H   H1        1.0  0.814878985285759  0.5571188926696777  0.513231635093689  1.0000
  H   H2        1.0  0.5922580019105226  0.9035534337162971  0.6106616966426373  1.0000
  H   H3        1.0  0.5406820178031921  0.9662986099720001  0.7456637322902679  1.0000
  H   H4        1.0  0.4144974648952484  0.7211300134658813  0.20685768872499466  1.0000
  S   S1        1.0  0.543841540813446  0.5668432600796223  0.8228080719709396  1.0000
  S   S2        1.0  0.7493409141898155  0.8324357271194458  0.07859974727034569  1.0000
  S   S3        1.0  0.9715176820755005  0.5023716315627098  0.6862773299217224  1.0000
  S   S4        1.0  0.021713271737098694  0.130662786308676  0.5001169741153717  1.0000
  O   O1        1.0  0.3356533837504685  0.6208895463496447  0.7922837696969509  1.0000
  O   O2        1.0  0.3989365417510271  0.4428394492715597  0.9454609618987888  1.0000
  O   O3        1.0  0.5974929220974445  0.7546442523598671  0.1012939102947712  1.0000
  O   O4        1.0  0.008628609590232372  0.25270311371423304  0.18898682814324275  1.0000
  O   O5        1.0  0.20865406235679984  0.7657129596918821  0.024981909955386072  1.0000
  O   O6        1.0  0.8728244602680206  0.964690800756216  0.9067526482976973  1.0000
  O   O7        1.0  0.7970767235383391  0.5336937087122351  0.16905210562981665  1.0000
  O   O8        1.0  0.387889284233097  0.6768461707979441  0.8596752104349434  1.0000
data_image173
_chemical_formula_structural       Cs4H4S4O8
_chemical_formula_sum              "Cs4 H4 S4 O8"
_cell_length_a       5.817371
_cell_length_b       6.411326074356613
_cell_length_c       12.038703921785974
_cell_angle_alpha    93.7344795294116
_cell_angle_beta     90.0
_cell_angle_gamma    116.97998093780937

_space_group_name_H-M_alt    "P 1"
_space_group_IT_number       1

loop_
  _space_group_symop_operation_xyz
  'x, y, z'

loop_
  _atom_site_type_symbol
  _atom_site_label
  _atom_site_symmetry_multiplicity
  _atom_site_fract_x
  _atom_site_fract_y
  _atom_site_fract_z
  _atom_site_occupancy
  Cs  Cs1       1.0  0.9993655830621719  0.1355147324502468  0.2948274128139019  1.0000
  Cs  Cs2       1.0  0.5387787483632565  0.5405007675290108  0.11544363689608872  1.0000
  Cs  Cs3       1.0  0.21511659771203995  0.7582397274672985  0.34234540862962604  1.0000
  Cs  Cs4       1.0  0.29286808520555496  0.6395266354084015  0.5872234478592873  1.0000
  H   H1        1.0  0.3779672384262085  0.4707718789577484  0.0813133716583252  1.0000
  H   H2        1.0  0.7733517773449421  0.499637421220541  0.34841330349445343  1.0000
  H   H3        1.0  0.07238796353340149  0.17051321268081665  0.571298748254776  1.0000
  H   H4        1.0  0.5485038757324219  0.6816793382167816  0.8609614968299866  1.0000
  S   S1        1.0  0.3774542212486267  0.762820478528738  0.5333399176597595  1.0000
  S   S2        1.0  0.6304323151707649  0.19638100266456604  0.4085041508078575  1.0000
  S   S3        1.0  0.2879309430718422  0.2390717025846243  0.6232710480690002  1.0000
  S   S4        1.0  0.37364843860268593  0.29891115752980113  0.2533845156431198  1.0000
  O   O1        1.0  0.6702726506628096  0.1649302914738655  0.5047963098622859  1.0000
  O   O2        1.0  0.26227361615747213  0.9076959677040577  0.25116859190165997  1.0000
  O   O3        1.0  0.6207727063447237  0.13614413142204285  0.23748153820633888  1.0000
  O   O4        1.0  0.5964906625449657  0.7574744785670191  0.18729677121154964  1.0000
  O   O5        1.0  0.6551395771093667  0.1690570362843573  0.16619216877734289  1.0000
  O   O6        1.0  0.8990136161446571  0.9965958409011364  0.05454718740656972  1.0000
  O   O7        1.0  0.7441933993250132  0.20316976867616177  0.22619666438549757  1.0000
  O   O8        1.0  0.8587464891606942  0.37177708745002747  0.846297075971961  1.0000
data_image174
_chemical_formula_structural       Cs4H4S4O8
_chemical_formula_sum              "Cs4 H4 S4 O8"
_cell_length_a       5.817371
_cell_length_b       6.411326074356613
_cell_length_c       12.038703921785974
_cell_angle_alpha    93.7344795294116
_cell_angle_beta     90.0
_cell_angle_gamma    116.97998093780937

_space_group_name_H-M_alt    "P 1"
_space_group_IT_number       1

loop_
  _space_group_symop_operation_xyz
  'x, y, z'

loop_
  _atom_site_type_symbol
  _atom_site_label
  _atom_site_symmetry_multiplicity
  _atom_site_fract_x
  _atom_site_fract_y
  _atom_site_fract_z
  _atom_site_occupancy
  Cs  Cs1       1.0  0.26355941593647003  0.7752553708851337  0.5514857657253742  1.0000
  Cs  Cs2       1.0  0.14392199739813805  0.7665344197303057  0.20117706595920026  1.0000
  Cs  Cs3       1.0  0.7933074198663235  0.12633151561021805  0.11126732639968395  1.0000
  Cs  Cs4       1.0  0.12187641113996506  0.44508008658885956  0.7106600310653448  1.0000
  H   H1        1.0  0.4428917020559311  0.8625341057777405  0.7757438123226166  1.0000
  H   H2        1.0  0.9276153624523431  0.6512046791613102  0.18628475069999695  1.0000
  H   H3        1.0  0.9428236782550812  0.6281042695045471  0.5783946812152863  1.0000
  H   H4        1.0  0.5221801102161407  0.2281970977783203  0.14307650923728943  1.0000
  S   S1        1.0  0.5313815474510193  0.451498880982399  0.16813386604189873  1.0000
  S   S2        1.0  0.07072202861309052  0.9654588997364044  0.6606291979551315  1.0000
  S   S3        1.0  0.5144533738493919  0.7741229999810457  0.5810056030750275  1.0000
  S   S4        1.0  0.2711772806942463  0.8442479567602277  0.5016775727272034  1.0000
  O   O1        1.0  0.3057570233941078  0.9487357195466757  0.8611704003997147  1.0000
  O   O2        1.0  0.04416636936366558  0.024614691734313965  0.9797799446387216  1.0000
  O   O3        1.0  0.9504651594907045  0.18052265048027039  0.8113768510520458  1.0000
  O   O4        1.0  0.10949962213635445  0.1961635099723935  0.22207845075172372  1.0000
  O   O5        1.0  0.21093008434399962  0.9533742484636605  0.6941755018779077  1.0000
  O   O6        1.0  0.5227437615394592  0.582449022680521  0.23775776522234082  1.0000
  O   O7        1.0  0.46260596718639135  0.9359198480378836  0.5170690317172557  1.0000
  O   O8        1.0  0.6167808602913283  0.8739395420998335  0.9492345107719302  1.0000
data_image175
_chemical_formula_structural       Cs4H4S4O8
_chemical_formula_sum              "Cs4 H4 S4 O8"
_cell_length_a       5.817371
_cell_length_b       6.411326074356613
_cell_length_c       12.038703921785974
_cell_angle_alpha    93.7344795294116
_cell_angle_beta     90.0
_cell_angle_gamma    116.97998093780937

_space_group_name_H-M_alt    "P 1"
_space_group_IT_number       1

loop_
  _space_group_symop_operation_xyz
  'x, y, z'

loop_
  _atom_site_type_symbol
  _atom_site_label
  _atom_site_symmetry_multiplicity
  _atom_site_fract_x
  _atom_site_fract_y
  _atom_site_fract_z
  _atom_site_occupancy
  Cs  Cs1       1.0  0.7544107213616371  0.02644120156764984  0.19246450439095497  1.0000
  Cs  Cs2       1.0  0.5104570686817169  0.2958315070718527  0.8204590982059017  1.0000
  Cs  Cs3       1.0  0.965283889323473  0.4075757674872875  0.8599510928615928  1.0000
  Cs  Cs4       1.0  0.4282362014055252  0.6136332005262375  0.5568095277994871  1.0000
  H   H1        1.0  0.9135020971298218  0.7723930925130844  0.27600833773612976  1.0000
  H   H2        1.0  0.8861092152073979  0.45492225140333176  0.7263560369610786  1.0000
  H   H3        1.0  0.8093418180942535  0.6310635209083557  0.9182267785072327  1.0000
  H   H4        1.0  0.35337674617767334  0.5308575928211212  0.1787429004907608  1.0000
  S   S1        1.0  0.6794627904891968  0.18341482430696487  0.623206477612257  1.0000
  S   S2        1.0  0.06539630889892578  0.039673805236816406  0.5999509990215302  1.0000
  S   S3        1.0  0.07735070586204529  0.7003939021378756  0.5361693799495697  1.0000
  S   S4        1.0  0.417060311883688  0.053225424606353045  0.3239104300737381  1.0000
  O   O1        1.0  0.05476745683699846  0.16878202743828297  0.8163410788401961  1.0000
  O   O2        1.0  0.45585422683507204  0.7214151509106159  0.12263688608072698  1.0000
  O   O3        1.0  0.8776314752176404  0.3783691078424454  0.3418021462857723  1.0000
  O   O4        1.0  0.935474656522274  0.6019867118448019  0.00328311970224604  1.0000
  O   O5        1.0  0.30409387592226267  0.1725663235411048  0.6727239546708006  1.0000
  O   O6        1.0  0.4702070876955986  0.9988153390586376  0.8970758500508964  1.0000
  O   O7        1.0  0.10548201855272055  0.8644005935639143  0.7583579525817186  1.0000
  O   O8        1.0  0.37200234307238134  0.606316365301609  0.9211402274668217  1.0000
data_image176
_chemical_formula_structural       Cs4H4S4O8
_chemical_formula_sum              "Cs4 H4 S4 O8"
_cell_length_a       5.817371
_cell_length_b       6.411326074356613
_cell_length_c       12.038703921785974
_cell_angle_alpha    93.7344795294116
_cell_angle_beta     90.0
_cell_angle_gamma    116.97998093780937

_space_group_name_H-M_alt    "P 1"
_space_group_IT_number       1

loop_
  _space_group_symop_operation_xyz
  'x, y, z'

loop_
  _atom_site_type_symbol
  _atom_site_label
  _atom_site_symmetry_multiplicity
  _atom_site_fract_x
  _atom_site_fract_y
  _atom_site_fract_z
  _atom_site_occupancy
  Cs  Cs1       1.0  0.5835108235478401  0.10217853263020515  0.7174177132546902  1.0000
  Cs  Cs2       1.0  0.5146032236516476  0.48704677913337946  0.020753164077177644  1.0000
  Cs  Cs3       1.0  0.7863756325095892  0.16514870524406433  0.4337066849693656  1.0000
  Cs  Cs4       1.0  0.4109664261341095  0.420058973133564  0.33797089755535126  1.0000
  H   H1        1.0  0.907743364572525  0.7011260688304901  0.6290250420570374  1.0000
  H   H2        1.0  0.7259038158226758  0.027598310261964798  0.7524957545101643  1.0000
  H   H3        1.0  0.9019598960876465  0.46407565474510193  0.5301448702812195  1.0000
  H   H4        1.0  0.6216954588890076  0.3592844009399414  0.7725882902741432  1.0000
  S   S1        1.0  0.6042915880680084  0.1285778135061264  0.4522061161696911  1.0000
  S   S2        1.0  0.3503299057483673  0.8304028511047363  0.7776472717523575  1.0000
  S   S3        1.0  0.47898901253938675  0.4467957727611065  0.68144641071558  1.0000
  S   S4        1.0  0.4134078286588192  0.8696956676431  0.18524906039237976  1.0000
  O   O1        1.0  0.3411710374057293  0.2999488655477762  0.44909208500757813  1.0000
  O   O2        1.0  0.41206767316907644  0.1453879177570343  0.5910415654070675  1.0000
  O   O3        1.0  0.8244955986738205  0.21048498898744583  0.6832102555781603  1.0000
  O   O4        1.0  0.9812959264963865  0.5293969991616905  0.3724146512977313  1.0000
  O   O5        1.0  0.7137434426695108  0.473617744166404  0.9603481488011312  1.0000
  O   O6        1.0  0.6149960681796074  0.10710616037249565  0.12180453911423683  1.0000
  O   O7        1.0  0.0714512262493372  0.06106598977930844  0.23136120312847197  1.0000
  O   O8        1.0  0.12064836698118597  0.8009050115942955  0.8381443335674703  1.0000
data_image177
_chemical_formula_structural       Cs4H4S4O8
_chemical_formula_sum              "Cs4 H4 S4 O8"
_cell_length_a       5.817371
_cell_length_b       6.411326074356613
_cell_length_c       12.038703921785974
_cell_angle_alpha    93.7344795294116
_cell_angle_beta     90.0
_cell_angle_gamma    116.97998093780937

_space_group_name_H-M_alt    "P 1"
_space_group_IT_number       1

loop_
  _space_group_symop_operation_xyz
  'x, y, z'

loop_
  _atom_site_type_symbol
  _atom_site_label
  _atom_site_symmetry_multiplicity
  _atom_site_fract_x
  _atom_site_fract_y
  _atom_site_fract_z
  _atom_site_occupancy
  Cs  Cs1       1.0  0.0336676687002182  0.5757913030683994  0.249265905469656  1.0000
  Cs  Cs2       1.0  0.1224505677819252  0.22698456048965454  0.8127671183319762  1.0000
  Cs  Cs3       1.0  0.3526036124676466  0.7709979191422462  0.7801133058965206  1.0000
  Cs  Cs4       1.0  0.2409270480275154  0.3322746604681015  0.9446958266198635  1.0000
  H   H1        1.0  0.6636557281017303  0.6247984021902084  0.6812155544757843  1.0000
  H   H2        1.0  0.4363315929658711  0.41285565122962  0.0435556098818779  1.0000
  H   H3        1.0  0.823528528213501  0.09939438104629517  0.7519807815551758  1.0000
  H   H4        1.0  0.675527811050415  0.21610590815544128  0.08608504384756088  1.0000
  S   S1        1.0  0.3588140904903412  0.41701821610331535  0.44531845953315496  1.0000
  S   S2        1.0  0.7291726469993591  0.558807760477066  0.28464435040950775  1.0000
  S   S3        1.0  0.6702738553285599  0.7349023120477796  0.7390795201063156  1.0000
  S   S4        1.0  0.2130810245871544  0.24361086171120405  0.7337357401847839  1.0000
  O   O1        1.0  0.04269214067608118  0.2122015357017517  0.2813640274107456  1.0000
  O   O2        1.0  0.5043523842468858  0.556864170357585  0.5212071373825893  1.0000
  O   O3        1.0  0.1636192612349987  0.13485407084226608  0.6771301906555891  1.0000
  O   O4        1.0  0.7797861127182841  0.7531874023843557  0.5653791848453693  1.0000
  O   O5        1.0  0.1474165255203843  0.9255041198339313  0.2129269007127732  1.0000
  O   O6        1.0  0.7354388684034348  0.35806266590952873  0.16241465602070093  1.0000
  O   O7        1.0  0.12651656288653612  0.904168822336942  0.04563437728211284  1.0000
  O   O8        1.0  0.3394740915391594  0.5053626298904419  0.0473393932916224  1.0000
data_image178
_chemical_formula_structural       Cs4H4S4O8
_chemical_formula_sum              "Cs4 H4 S4 O8"
_cell_length_a       5.817371
_cell_length_b       6.411326074356613
_cell_length_c       12.038703921785974
_cell_angle_alpha    93.7344795294116
_cell_angle_beta     90.0
_cell_angle_gamma    116.97998093780937

_space_group_name_H-M_alt    "P 1"
_space_group_IT_number       1

loop_
  _space_group_symop_operation_xyz
  'x, y, z'

loop_
  _atom_site_type_symbol
  _atom_site_label
  _atom_site_symmetry_multiplicity
  _atom_site_fract_x
  _atom_site_fract_y
  _atom_site_fract_z
  _atom_site_occupancy
  Cs  Cs1       1.0  0.9397652745246887  0.6904409863054752  0.13436999917030334  1.0000
  Cs  Cs2       1.0  0.5909356251358986  0.6070153824985027  0.35312808700837195  1.0000
  Cs  Cs3       1.0  0.46241218596696854  0.8879211209714413  0.19907074607908726  1.0000
  Cs  Cs4       1.0  0.9381415545940399  0.41921569406986237  0.5511597413569689  1.0000
  H   H1        1.0  0.64532870054245  0.8144590705633163  0.973716676235199  1.0000
  H   H2        1.0  0.5152396936900914  0.3600250668823719  0.03326862305402756  1.0000
  H   H3        1.0  0.5122900009155273  0.12270361185073853  0.3105655312538147  1.0000
  H   H4        1.0  0.5866224467754364  0.8562473058700562  0.7807507812976837  1.0000
  S   S1        1.0  0.14344730973243713  0.7026816569268703  0.2644801130518317  1.0000
  S   S2        1.0  0.008597016334533691  0.19680941104888916  0.2586495578289032  1.0000
  S   S3        1.0  0.9331709444522858  0.09942882601171732  0.21992649883031845  1.0000
  S   S4        1.0  0.8002019673585892  0.9199241208843887  0.27323684096336365  1.0000
  O   O1        1.0  0.9702876573428512  0.17858275957405567  0.4674309962429106  1.0000
  O   O2        1.0  0.7780619794502854  0.13347825407981873  0.6050269423285499  1.0000
  O   O3        1.0  0.4016291322186589  0.7182344943284988  0.4857129938900471  1.0000
  O   O4        1.0  0.4861306697130203  0.44630866195075214  0.7926148829865269  1.0000
  O   O5        1.0  0.8866539737209678  0.9100241765845567  0.5438207750557922  1.0000
  O   O6        1.0  0.03592225909233093  0.7870287820696831  0.11776181915774941  1.0000
  O   O7        1.0  0.3003338696435094  0.13444321136921644  0.4125135913491249  1.0000
  O   O8        1.0  0.745274587534368  0.3234430504962802  0.9701752653345466  1.0000
data_image179
_chemical_formula_structural       Cs4H4S4O8
_chemical_formula_sum              "Cs4 H4 S4 O8"
_cell_length_a       5.817371
_cell_length_b       6.411326074356613
_cell_length_c       12.038703921785974
_cell_angle_alpha    93.7344795294116
_cell_angle_beta     90.0
_cell_angle_gamma    116.97998093780937

_space_group_name_H-M_alt    "P 1"
_space_group_IT_number       1

loop_
  _space_group_symop_operation_xyz
  'x, y, z'

loop_
  _atom_site_type_symbol
  _atom_site_label
  _atom_site_symmetry_multiplicity
  _atom_site_fract_x
  _atom_site_fract_y
  _atom_site_fract_z
  _atom_site_occupancy
  Cs  Cs1       1.0  0.06943527236580849  0.10332828760147095  0.5323111824691296  1.0000
  Cs  Cs2       1.0  0.7557854875922203  0.17352574784308672  0.08578417031094432  1.0000
  Cs  Cs3       1.0  0.21601617615669966  0.3335462845861912  0.12412803620100021  1.0000
  Cs  Cs4       1.0  0.9034158140420914  0.06611616164445877  0.31837525591254234  1.0000
  H   H1        1.0  0.6652386486530304  0.7945321649312973  0.00042682886123657227  1.0000
  H   H2        1.0  0.7784826598362997  0.12778853625059128  0.33067796751856804  1.0000
  H   H3        1.0  0.5443685054779053  0.9652888178825378  0.06263679265975952  1.0000
  H   H4        1.0  0.03948161005973816  0.032544732093811035  0.2367110475897789  1.0000
  S   S1        1.0  0.3873352110385895  0.07423626072704792  0.3752610720694065  1.0000
  S   S2        1.0  0.04682263731956482  0.24470669031143188  0.0741790235042572  1.0000
  S   S3        1.0  0.5721970368176699  0.5587252177065238  0.7905165627598763  1.0000
  S   S4        1.0  0.6321339793503284  0.9628035491332412  0.5169056206941605  1.0000
  O   O1        1.0  0.017094162292778492  0.36380243860185146  0.23886004369705915  1.0000
  O   O2        1.0  0.6710417568683624  0.5365121141076088  0.9575560808880255  1.0000
  O   O3        1.0  0.16571625974029303  0.38981538265943527  0.9697016291320324  1.0000
  O   O4        1.0  0.5116305528208613  0.4029471112880856  0.13173390754673164  1.0000
  O   O5        1.0  0.6714115468785167  0.6547807537717745  0.08340757503174245  1.0000
  O   O6        1.0  0.42650121450424194  0.38502615317702293  0.6731677139177918  1.0000
  O   O7        1.0  0.7239410048350692  0.015685337595641613  0.6107369458768517  1.0000
  O   O8        1.0  0.593788631260395  0.023568185046315193  0.7372828782536089  1.0000
data_image180
_chemical_formula_structural       Cs4H4S4O8
_chemical_formula_sum              "Cs4 H4 S4 O8"
_cell_length_a       5.817371
_cell_length_b       6.411326074356613
_cell_length_c       12.038703921785974
_cell_angle_alpha    93.7344795294116
_cell_angle_beta     90.0
_cell_angle_gamma    116.97998093780937

_space_group_name_H-M_alt    "P 1"
_space_group_IT_number       1

loop_
  _space_group_symop_operation_xyz
  'x, y, z'

loop_
  _atom_site_type_symbol
  _atom_site_label
  _atom_site_symmetry_multiplicity
  _atom_site_fract_x
  _atom_site_fract_y
  _atom_site_fract_z
  _atom_site_occupancy
  Cs  Cs1       1.0  0.6881862580776215  0.7387290336191654  0.9651605188846588  1.0000
  Cs  Cs2       1.0  0.2468598410487175  0.3220665203407407  0.35024060239084065  1.0000
  Cs  Cs3       1.0  0.7304171901196241  0.7455936521291733  0.47548284009099007  1.0000
  Cs  Cs4       1.0  0.8092366978526115  0.8264902383089066  0.6078439150005579  1.0000
  H   H1        1.0  0.23528039455413818  0.1469101458787918  0.36850741505622864  1.0000
  H   H2        1.0  0.5504417836200446  0.8822905421257019  0.00661371648311615  1.0000
  H   H3        1.0  0.6744640171527863  0.6333001554012299  0.05730357766151428  1.0000
  H   H4        1.0  0.2560696303844452  0.9971996545791626  0.9330876916646957  1.0000
  S   S1        1.0  0.8765982091426849  0.5588580332696438  0.34775836393237114  1.0000
  S   S2        1.0  0.5989789962768555  0.21965071558952332  0.6662738919258118  1.0000
  S   S3        1.0  0.16855699010193348  0.7742889765650034  0.05429401248693466  1.0000
  S   S4        1.0  0.19809183105826378  0.08580021047964692  0.21063083410263062  1.0000
  O   O1        1.0  0.050570438615977764  0.38507125712931156  0.12115866132080555  1.0000
  O   O2        1.0  0.04562909062951803  0.22851359844207764  0.6788208704674616  1.0000
  O   O3        1.0  0.1930433176457882  0.8259249404072762  0.15507350489497185  1.0000
  O   O4        1.0  0.14914728794246912  0.6156423317734152  0.7520473215263337  1.0000
  O   O5        1.0  0.5236633159220219  0.7167952299932949  0.18547755340114236  1.0000
  O   O6        1.0  0.11968809366226196  0.2137179598212242  0.2764244740828872  1.0000
  O   O7        1.0  0.8056748937815428  0.00948657188564539  0.8458666824735701  1.0000
  O   O8        1.0  0.7605889954138547  0.4249118035659194  0.7967644291929901  1.0000
data_image181
_chemical_formula_structural       Cs4H4S4O8
_chemical_formula_sum              "Cs4 H4 S4 O8"
_cell_length_a       5.817371
_cell_length_b       6.411326074356613
_cell_length_c       12.038703921785974
_cell_angle_alpha    93.7344795294116
_cell_angle_beta     90.0
_cell_angle_gamma    116.97998093780937

_space_group_name_H-M_alt    "P 1"
_space_group_IT_number       1

loop_
  _space_group_symop_operation_xyz
  'x, y, z'

loop_
  _atom_site_type_symbol
  _atom_site_label
  _atom_site_symmetry_multiplicity
  _atom_site_fract_x
  _atom_site_fract_y
  _atom_site_fract_z
  _atom_site_occupancy
  Cs  Cs1       1.0  0.17147306725382805  0.3302541635930538  0.897418387234211  1.0000
  Cs  Cs2       1.0  0.19693496078252792  0.8890058686956763  0.27425432135351  1.0000
  Cs  Cs3       1.0  0.38341122679412365  0.03152545541524887  0.17643560096621513  1.0000
  Cs  Cs4       1.0  0.3019126430153847  0.9539785459637642  0.4869626313447952  1.0000
  H   H1        1.0  0.7777910232543945  0.12076902389526367  0.3626053035259247  1.0000
  H   H2        1.0  0.8407443463802338  0.324797622859478  0.5202205367386341  1.0000
  H   H3        1.0  0.36669324338436127  0.1082254946231842  0.30336689949035645  1.0000
  H   H4        1.0  0.3605702668428421  0.7182278037071228  0.6863576397299767  1.0000
  S   S1        1.0  0.25966745615005493  0.4817823991179466  0.2994356267154217  1.0000
  S   S2        1.0  0.22868716716766357  0.9351419806480408  0.029557816684246063  1.0000
  S   S3        1.0  0.23614497855305672  0.12430372182279825  0.3530194088816643  1.0000
  S   S4        1.0  0.8207076899707317  0.13865995779633522  0.7367545068264008  1.0000
  O   O1        1.0  0.7248815670609474  0.6783486399799585  0.8276018775068223  1.0000
  O   O2        1.0  0.3353581642732024  0.9085499309003353  0.3022908935090527  1.0000
  O   O3        1.0  0.7798527730628848  0.15008684247732162  0.9525020569562912  1.0000
  O   O4        1.0  0.1076295729726553  0.5134536634432152  0.04589878226397559  1.0000
  O   O5        1.0  0.9445264162495732  0.3494806888047606  0.8072761427611113  1.0000
  O   O6        1.0  0.13897902518510818  0.5767209716141224  0.468889179173857  1.0000
  O   O7        1.0  0.9735733373090625  0.7743472959846258  0.1948180184699595  1.0000
  O   O8        1.0  0.04067168175242841  0.321230610832572  0.981858532410115  1.0000
data_image182
_chemical_formula_structural       Cs4H4S4O8
_chemical_formula_sum              "Cs4 H4 S4 O8"
_cell_length_a       5.817371
_cell_length_b       6.411326074356613
_cell_length_c       12.038703921785974
_cell_angle_alpha    93.7344795294116
_cell_angle_beta     90.0
_cell_angle_gamma    116.97998093780937

_space_group_name_H-M_alt    "P 1"
_space_group_IT_number       1

loop_
  _space_group_symop_operation_xyz
  'x, y, z'

loop_
  _atom_site_type_symbol
  _atom_site_label
  _atom_site_symmetry_multiplicity
  _atom_site_fract_x
  _atom_site_fract_y
  _atom_site_fract_z
  _atom_site_occupancy
  Cs  Cs1       1.0  0.5534450877457857  0.9295197911560535  0.4707220569252968  1.0000
  Cs  Cs2       1.0  0.5159717686474323  0.40227776020765305  0.7550241486169398  1.0000
  Cs  Cs3       1.0  0.5835074037313461  0.5845129787921906  0.3395213186740875  1.0000
  Cs  Cs4       1.0  0.054860129952430725  0.8737197443842888  0.29746790044009686  1.0000
  H   H1        1.0  0.26491639018058777  0.3680542856454849  0.8030451834201813  1.0000
  H   H2        1.0  0.5376618846494239  0.6415126398205757  0.3564695753157139  1.0000
  H   H3        1.0  0.7799534797668457  0.7464716732501984  0.9902575016021729  1.0000
  H   H4        1.0  0.02381230890750885  0.8149026781320572  0.08597663044929504  1.0000
  S   S1        1.0  0.735071450471878  0.023710947483778  0.6743664406239986  1.0000
  S   S2        1.0  0.11219808459281921  0.5750728845596313  0.48170023411512375  1.0000
  S   S3        1.0  0.25323138386011124  0.9277661414816976  0.4978625476360321  1.0000
  S   S4        1.0  0.5052826665341854  0.9721423806622624  0.022032946348190308  1.0000
  O   O1        1.0  0.0838568676263094  0.3855266571044922  0.255318240262568  1.0000
  O   O2        1.0  0.2547886800020933  0.8568083457648754  0.07476902834605426  1.0000
  O   O3        1.0  0.22857141308486462  0.7848612517118454  0.7113535106182098  1.0000
  O   O4        1.0  0.5381741235032678  0.9615832534618676  0.6663782096584328  1.0000
  O   O5        1.0  0.09866559691727161  0.9644416705705225  0.7247245293110609  1.0000
  O   O6        1.0  0.8677282705903053  0.2908538728952408  0.4868688085116446  1.0000
  O   O7        1.0  0.5815305225551128  0.9076295485720038  0.23723334865644574  1.0000
  O   O8        1.0  0.9878762327134609  0.5004119947552681  0.028899820987135172  1.0000
data_image183
_chemical_formula_structural       Cs4H4S4O8
_chemical_formula_sum              "Cs4 H4 S4 O8"
_cell_length_a       5.817371
_cell_length_b       6.411326074356613
_cell_length_c       12.038703921785974
_cell_angle_alpha    93.7344795294116
_cell_angle_beta     90.0
_cell_angle_gamma    116.97998093780937

_space_group_name_H-M_alt    "P 1"
_space_group_IT_number       1

loop_
  _space_group_symop_operation_xyz
  'x, y, z'

loop_
  _atom_site_type_symbol
  _atom_site_label
  _atom_site_symmetry_multiplicity
  _atom_site_fract_x
  _atom_site_fract_y
  _atom_site_fract_z
  _atom_site_occupancy
  Cs  Cs1       1.0  0.8771534543484449  0.7864929884672165  0.7371164709329605  1.0000
  Cs  Cs2       1.0  0.8435270562767982  0.9363203775137663  0.050483031664043665  1.0000
  Cs  Cs3       1.0  0.521316422149539  0.8409221693873405  0.20388119295239449  1.0000
  Cs  Cs4       1.0  0.5554122254252434  0.539842277765274  0.6841314546763897  1.0000
  H   H1        1.0  0.8888077437877655  0.7581435739994049  0.3844737112522125  1.0000
  H   H2        1.0  0.8772971201688051  0.9903846867382526  0.4447017274796963  1.0000
  H   H3        1.0  0.0435602068901062  0.8027023375034332  0.68599072098732  1.0000
  H   H4        1.0  0.8968955129384995  0.6295490562915802  0.2848464101552963  1.0000
  S   S1        1.0  0.40315765142440796  0.24233444035053253  0.2912456840276718  1.0000
  S   S2        1.0  0.19854390621185303  0.35075682401657104  0.22280766069889069  1.0000
  S   S3        1.0  0.6121246330440044  0.7988530080765486  0.48966600745916367  1.0000
  S   S4        1.0  0.44553110748529434  0.937112043146044  0.8644577264785767  1.0000
  O   O1        1.0  0.1038994723930955  0.7087955046445131  0.8330690385773778  1.0000
  O   O2        1.0  0.2498797820881009  0.42220912128686905  0.4434191059553996  1.0000
  O   O3        1.0  0.6275059403851628  0.4778744876384735  0.493429034948349  1.0000
  O   O4        1.0  0.8783400831744075  0.8921793447807431  0.9720705506624654  1.0000
  O   O5        1.0  0.20674859266728163  0.733011495671235  0.005084018222987652  1.0000
  O   O6        1.0  0.5628964081406593  0.6164206378161907  0.30750505439937115  1.0000
  O   O7        1.0  0.412037780508399  0.9483366487547755  0.9177470554132015  1.0000
  O   O8        1.0  0.9588409708812833  0.8011333616450429  0.836527154315263  1.0000
data_image184
_chemical_formula_structural       Cs4H4S4O8
_chemical_formula_sum              "Cs4 H4 S4 O8"
_cell_length_a       5.817371
_cell_length_b       6.411326074356613
_cell_length_c       12.038703921785974
_cell_angle_alpha    93.7344795294116
_cell_angle_beta     90.0
_cell_angle_gamma    116.97998093780937

_space_group_name_H-M_alt    "P 1"
_space_group_IT_number       1

loop_
  _space_group_symop_operation_xyz
  'x, y, z'

loop_
  _atom_site_type_symbol
  _atom_site_label
  _atom_site_symmetry_multiplicity
  _atom_site_fract_x
  _atom_site_fract_y
  _atom_site_fract_z
  _atom_site_occupancy
  Cs  Cs1       1.0  0.7935397531837225  0.5373217053711414  0.7928846813738346  1.0000
  Cs  Cs2       1.0  0.3694172203540802  0.6836081156507134  0.7743856508750468  1.0000
  Cs  Cs3       1.0  0.7868711948394775  0.0893208310008049  0.5684787631034851  1.0000
  Cs  Cs4       1.0  0.9563026130199432  0.7353002950549126  0.230525191873312  1.0000
  H   H1        1.0  0.6895950585603714  0.0073806047439575195  0.3780207633972168  1.0000
  H   H2        1.0  0.0057751089334487915  0.3077503852546215  0.5887427404522896  1.0000
  H   H3        1.0  0.35404588282108307  0.5382483303546906  0.26337113976478577  1.0000
  H   H4        1.0  0.3212174326181412  0.023779287934303284  0.04833406209945679  1.0000
  S   S1        1.0  0.5180138945579529  0.040705468505620956  0.8343105167150497  1.0000
  S   S2        1.0  0.2392035722732544  0.6719001531600952  0.5565445199608803  1.0000
  S   S3        1.0  0.608807198703289  0.8760207667946815  0.9927489310503006  1.0000
  S   S4        1.0  0.19166275532916188  0.6054342593997717  0.28990960121154785  1.0000
  O   O1        1.0  0.5273401718586683  0.15163890272378922  0.6532089971005917  1.0000
  O   O2        1.0  0.5301483022049069  0.88135583139956  0.8304863090161234  1.0000
  O   O3        1.0  0.4049286525696516  0.23112298548221588  0.7752083260565996  1.0000
  O   O4        1.0  0.9902258515357971  0.501278487732634  0.360057377605699  1.0000
  O   O5        1.0  0.6024500392377377  0.11682664602994919  0.25736235768999904  1.0000
  O   O6        1.0  0.5835287719964981  0.2736918479204178  0.9515174897387624  1.0000
  O   O7        1.0  0.23901263996958733  0.7092702179215848  0.3126460835337639  1.0000
  O   O8        1.0  0.252453992376104  0.25589085184037685  0.9525658469647169  1.0000
data_image185
_chemical_formula_structural       Cs4H4S4O8
_chemical_formula_sum              "Cs4 H4 S4 O8"
_cell_length_a       5.817371
_cell_length_b       6.411326074356613
_cell_length_c       12.038703921785974
_cell_angle_alpha    93.7344795294116
_cell_angle_beta     90.0
_cell_angle_gamma    116.97998093780937

_space_group_name_H-M_alt    "P 1"
_space_group_IT_number       1

loop_
  _space_group_symop_operation_xyz
  'x, y, z'

loop_
  _atom_site_type_symbol
  _atom_site_label
  _atom_site_symmetry_multiplicity
  _atom_site_fract_x
  _atom_site_fract_y
  _atom_site_fract_z
  _atom_site_occupancy
  Cs  Cs1       1.0  0.9015931058675051  0.5596677511930466  0.624067198485136  1.0000
  Cs  Cs2       1.0  0.7753032632172108  0.5093595208600163  0.6302758865058422  1.0000
  Cs  Cs3       1.0  0.03287393972277641  0.15575245767831802  0.6732183154672384  1.0000
  Cs  Cs4       1.0  0.20804880559444427  0.5404638200998306  0.18809161335229874  1.0000
  H   H1        1.0  0.336248442530632  0.28004637360572815  0.05526354908943176  1.0000
  H   H2        1.0  0.7386476723477244  0.055749427527189255  0.1347513347864151  1.0000
  H   H3        1.0  0.5330904275178909  0.48302969336509705  0.8227967917919159  1.0000
  H   H4        1.0  0.7997414618730545  0.7646099478006363  0.7418785616755486  1.0000
  S   S1        1.0  0.016127407550811768  0.6973225623369217  0.20450568944215775  1.0000
  S   S2        1.0  0.018871992826461792  0.6469224095344543  0.57663893699646  1.0000
  S   S3        1.0  0.8740086890757084  0.49151751678436995  0.6743945330381393  1.0000
  S   S4        1.0  0.18205441161990166  0.7414190210402012  0.3637736886739731  1.0000
  O   O1        1.0  0.7011979594826698  0.704287089407444  0.9175315666943789  1.0000
  O   O2        1.0  0.9316718773916364  0.06510861590504646  0.6603834178531542  1.0000
  O   O3        1.0  0.8159662475809455  0.4168423265218735  0.471942538395524  1.0000
  O   O4        1.0  0.5452651977539062  0.9783478862373158  0.9266968698939309  1.0000
  O   O5        1.0  0.8603015542030334  0.6179187726229429  0.5890742498449981  1.0000
  O   O6        1.0  0.061656512320041656  0.3649675101041794  0.1878990619443357  1.0000
  O   O7        1.0  0.15628864709287882  0.44778248807415366  0.9608816879335791  1.0000
  O   O8        1.0  0.8061382826417685  0.9612032547593117  0.3339521996676922  1.0000
data_image186
_chemical_formula_structural       Cs4H4S4O8
_chemical_formula_sum              "Cs4 H4 S4 O8"
_cell_length_a       5.817371
_cell_length_b       6.411326074356613
_cell_length_c       12.038703921785974
_cell_angle_alpha    93.7344795294116
_cell_angle_beta     90.0
_cell_angle_gamma    116.97998093780937

_space_group_name_H-M_alt    "P 1"
_space_group_IT_number       1

loop_
  _space_group_symop_operation_xyz
  'x, y, z'

loop_
  _atom_site_type_symbol
  _atom_site_label
  _atom_site_symmetry_multiplicity
  _atom_site_fract_x
  _atom_site_fract_y
  _atom_site_fract_z
  _atom_site_occupancy
  Cs  Cs1       1.0  0.009698161855340004  0.1253388151526451  0.9351273216307163  1.0000
  Cs  Cs2       1.0  0.21820912510156631  0.022738449275493622  0.5023106585722417  1.0000
  Cs  Cs3       1.0  0.45259440690279007  0.17072702944278717  0.9428381212055683  1.0000
  Cs  Cs4       1.0  0.013065755367279053  0.23584767431020737  0.04186145029962063  1.0000
  H   H1        1.0  0.49555863440036774  0.8018818348646164  0.652721494436264  1.0000
  H   H2        1.0  0.911392679437995  0.7304221019148827  0.10103054717183113  1.0000
  H   H3        1.0  0.1680792272090912  0.09898525476455688  0.9385221600532532  1.0000
  H   H4        1.0  0.25747163593769073  0.3269524872303009  0.7965304777026176  1.0000
  S   S1        1.0  0.601159393787384  0.11504950374364853  0.5909893438220024  1.0000
  S   S2        1.0  0.8953685164451599  0.5437133014202118  0.915727287530899  1.0000
  S   S3        1.0  0.7657110095024109  0.10865704528987408  0.9205964803695679  1.0000
  S   S4        1.0  0.9866512008011341  0.82069056853652  0.08787733316421509  1.0000
  O   O1        1.0  0.5297247730195522  0.3440121300518513  0.9548575053922832  1.0000
  O   O2        1.0  0.3554924223572016  0.7548195496201515  0.17964186694007367  1.0000
  O   O3        1.0  0.9426424764096737  0.5576845332980156  0.6866329777985811  1.0000
  O   O4        1.0  0.8912657964974642  0.022051154170185328  0.2803922487364616  1.0000
  O   O5        1.0  0.9716614512726665  0.526032505556941  0.626922864234075  1.0000
  O   O6        1.0  0.2131480574607849  0.23069387301802635  0.4383679232560098  1.0000
  O   O7        1.0  0.22623241320252419  0.019664796069264412  0.11057065078057349  1.0000
  O   O8        1.0  0.03280874458141625  0.33303485345095396  0.08490604534745216  1.0000
data_image187
_chemical_formula_structural       Cs4H4S4O8
_chemical_formula_sum              "Cs4 H4 S4 O8"
_cell_length_a       5.817371
_cell_length_b       6.411326074356613
_cell_length_c       12.038703921785974
_cell_angle_alpha    93.7344795294116
_cell_angle_beta     90.0
_cell_angle_gamma    116.97998093780937

_space_group_name_H-M_alt    "P 1"
_space_group_IT_number       1

loop_
  _space_group_symop_operation_xyz
  'x, y, z'

loop_
  _atom_site_type_symbol
  _atom_site_label
  _atom_site_symmetry_multiplicity
  _atom_site_fract_x
  _atom_site_fract_y
  _atom_site_fract_z
  _atom_site_occupancy
  Cs  Cs1       1.0  0.8178250193595886  0.7167191430926323  0.4873557314276695  1.0000
  Cs  Cs2       1.0  0.6994794197380543  0.8762654410675168  0.8900934457778931  1.0000
  Cs  Cs3       1.0  0.8367725349962711  0.3558410406112671  0.05626943148672581  1.0000
  Cs  Cs4       1.0  0.819233275949955  0.8828233480453491  0.2975430581718683  1.0000
  H   H1        1.0  0.8470554202795029  0.18188638985157013  0.702571839094162  1.0000
  H   H2        1.0  0.5868550911545753  0.6917805429548025  0.21180908754467964  1.0000
  H   H3        1.0  0.8181168138980865  0.562128335237503  0.6663353145122528  1.0000
  H   H4        1.0  0.3378659784793854  0.6578904092311859  0.9070098921656609  1.0000
  S   S1        1.0  0.9071536958217621  0.3729142099618912  0.7406545579433441  1.0000
  S   S2        1.0  0.34627583622932434  0.8984045088291168  0.2748926021158695  1.0000
  S   S3        1.0  0.6000568643212318  0.47656683810055256  0.20609935373067856  1.0000
  S   S4        1.0  0.7283111475408077  0.15229938179254532  0.1634059101343155  1.0000
  O   O1        1.0  0.3916202047839761  0.3141360655426979  0.7884914497844875  1.0000
  O   O2        1.0  0.30428147688508034  0.9198207817971706  0.3584042047150433  1.0000
  O   O3        1.0  0.3029182441532612  0.7029608935117722  0.7385505177080631  1.0000
  O   O4        1.0  0.5287951845675707  0.5577449963893741  0.29932127404026687  1.0000
  O   O5        1.0  0.6330216638743877  0.8504400737583637  0.6059213549597189  1.0000
  O   O6        1.0  0.3078411817550659  0.555726382881403  0.3720177593640983  1.0000
  O   O7        1.0  0.6475600022822618  0.7521499553695321  0.19483725493773818  1.0000
  O   O8        1.0  0.5134536670520902  0.6407653745263815  0.8942532893270254  1.0000
data_image188
_chemical_formula_structural       Cs4H4S4O8
_chemical_formula_sum              "Cs4 H4 S4 O8"
_cell_length_a       5.817371
_cell_length_b       6.411326074356613
_cell_length_c       12.038703921785974
_cell_angle_alpha    93.7344795294116
_cell_angle_beta     90.0
_cell_angle_gamma    116.97998093780937

_space_group_name_H-M_alt    "P 1"
_space_group_IT_number       1

loop_
  _space_group_symop_operation_xyz
  'x, y, z'

loop_
  _atom_site_type_symbol
  _atom_site_label
  _atom_site_symmetry_multiplicity
  _atom_site_fract_x
  _atom_site_fract_y
  _atom_site_fract_z
  _atom_site_occupancy
  Cs  Cs1       1.0  0.4340932369232178  0.9950633496046066  0.0776434950530529  1.0000
  Cs  Cs2       1.0  0.6364428913220763  0.7230573510751128  0.17032442055642605  1.0000
  Cs  Cs3       1.0  0.04454550892114639  0.5739241614937782  0.9559038486331701  1.0000
  Cs  Cs4       1.0  0.19822288304567337  0.4979669824242592  0.09377965331077576  1.0000
  H   H1        1.0  0.6084991097450256  0.08629380166530609  0.5197506844997406  1.0000
  H   H2        1.0  0.10021410323679447  0.6015573367476463  0.647122535854578  1.0000
  H   H3        1.0  0.17281264066696167  0.1867268979549408  0.19843223690986633  1.0000
  H   H4        1.0  0.4408850371837616  0.3931075483560562  0.9837483316659927  1.0000
  S   S1        1.0  0.48240941762924194  0.29840996861457825  0.35847798734903336  1.0000
  S   S2        1.0  0.222882479429245  0.5981373488903046  0.8356832377612591  1.0000
  S   S3        1.0  0.3466600477695465  0.683953158557415  0.2147744596004486  1.0000
  S   S4        1.0  0.7132446207106113  0.16529348492622375  0.800855427980423  1.0000
  O   O1        1.0  0.4455206049606204  0.2166980542242527  0.7559570297598839  1.0000
  O   O2        1.0  0.7687059864401817  0.28740672022104263  0.4175762990489602  1.0000
  O   O3        1.0  0.6354662124067545  0.2415671870112419  0.6505971569567919  1.0000
  O   O4        1.0  0.26793268881738186  0.8471523115549644  0.4841665329877287  1.0000
  O   O5        1.0  0.9354655342176557  0.11272806813940406  0.21520592062734067  1.0000
  O   O6        1.0  0.41073980927467346  0.004035342484712601  0.5459730057045817  1.0000
  O   O7        1.0  0.5845601614564657  0.09102049097418785  0.743108719587326  1.0000
  O   O8        1.0  0.04781746119260788  0.9968146793544292  0.19963905960321426  1.0000
data_image189
_chemical_formula_structural       Cs4H4S4O8
_chemical_formula_sum              "Cs4 H4 S4 O8"
_cell_length_a       5.817371
_cell_length_b       6.411326074356613
_cell_length_c       12.038703921785974
_cell_angle_alpha    93.7344795294116
_cell_angle_beta     90.0
_cell_angle_gamma    116.97998093780937

_space_group_name_H-M_alt    "P 1"
_space_group_IT_number       1

loop_
  _space_group_symop_operation_xyz
  'x, y, z'

loop_
  _atom_site_type_symbol
  _atom_site_label
  _atom_site_symmetry_multiplicity
  _atom_site_fract_x
  _atom_site_fract_y
  _atom_site_fract_z
  _atom_site_occupancy
  Cs  Cs1       1.0  0.8935635760426521  0.9211680330336094  0.29372239485383034  1.0000
  Cs  Cs2       1.0  0.5892194962361827  0.9502878645434976  0.5243006711825728  1.0000
  Cs  Cs3       1.0  0.2569613382220268  0.4829215556383133  0.6933830752968788  1.0000
  Cs  Cs4       1.0  0.1742335930466652  0.4822455495595932  0.24048594571650028  1.0000
  H   H1        1.0  0.1020660251379013  0.7882065176963806  0.3987177312374115  1.0000
  H   H2        1.0  0.15142037719488144  0.7208293713629246  0.597006693482399  1.0000
  H   H3        1.0  0.408172070980072  0.8782195746898651  0.8900565803050995  1.0000
  H   H4        1.0  0.5012456476688385  0.5921348631381989  0.5692821219563484  1.0000
  S   S1        1.0  0.8409799933433533  0.30579129606485367  0.5124471411108971  1.0000
  S   S2        1.0  0.15658173710107803  0.6962666213512421  0.4669373296201229  1.0000
  S   S3        1.0  0.22266127914190292  0.7763555124402046  0.4190457984805107  1.0000
  S   S4        1.0  0.24784157797694206  0.7512132972478867  0.8895116746425629  1.0000
  O   O1        1.0  0.08089587651193142  0.44900801219046116  0.46133696660399437  1.0000
  O   O2        1.0  0.07755914330482483  0.5209186635911465  0.37160927057266235  1.0000
  O   O3        1.0  0.6857387293130159  0.9923576191067696  0.6601757481694221  1.0000
  O   O4        1.0  0.3222339507192373  0.019590823678299785  0.5373934912495315  1.0000
  O   O5        1.0  0.6833638260141015  0.005280722863972187  0.7898508970392868  1.0000
  O   O6        1.0  0.8622910678386688  0.04425081983208656  0.6627650260925293  1.0000
  O   O7        1.0  0.6834326693788171  0.33472459157928824  0.5636187004856765  1.0000
  O   O8        1.0  0.36525145918130875  0.6650056205689907  0.104103934019804  1.0000
data_image190
_chemical_formula_structural       Cs4H4S4O8
_chemical_formula_sum              "Cs4 H4 S4 O8"
_cell_length_a       5.817371
_cell_length_b       6.411326074356613
_cell_length_c       12.038703921785974
_cell_angle_alpha    93.7344795294116
_cell_angle_beta     90.0
_cell_angle_gamma    116.97998093780937

_space_group_name_H-M_alt    "P 1"
_space_group_IT_number       1

loop_
  _space_group_symop_operation_xyz
  'x, y, z'

loop_
  _atom_site_type_symbol
  _atom_site_label
  _atom_site_symmetry_multiplicity
  _atom_site_fract_x
  _atom_site_fract_y
  _atom_site_fract_z
  _atom_site_occupancy
  Cs  Cs1       1.0  0.11183751374483109  0.2443760335445404  0.3906252570450306  1.0000
  Cs  Cs2       1.0  0.287349944235757  0.2712126327678561  0.5530302058905363  1.0000
  Cs  Cs3       1.0  0.7053530775010586  0.6342198774218559  0.30469800531864166  1.0000
  Cs  Cs4       1.0  0.015196837484836578  0.6873838603496552  0.8825588375329971  1.0000
  H   H1        1.0  0.7698533087968826  0.5764766931533813  0.06197100877761841  1.0000
  H   H2        1.0  0.250065453350544  0.9162137433886528  0.738270428031683  1.0000
  H   H3        1.0  0.029442325234413147  0.05497008562088013  0.5364604890346527  1.0000
  H   H4        1.0  0.37642498314380646  0.7125564217567444  0.4384975805878639  1.0000
  S   S1        1.0  0.3451780378818512  0.5268850438296795  0.5677309259772301  1.0000
  S   S2        1.0  0.43680553138256073  0.23831677436828613  0.9996983073651791  1.0000
  S   S3        1.0  0.3417263403534889  0.8075269907712936  0.2930956110358238  1.0000
  S   S4        1.0  0.2561190314590931  0.30646388977766037  0.7560473382472992  1.0000
  O   O1        1.0  0.43009004183113575  0.6172177996486425  0.8821488083340228  1.0000
  O   O2        1.0  0.4867212511599064  0.7048969343304634  0.6129423873499036  1.0000
  O   O3        1.0  0.2946602813899517  0.7217951789498329  0.6545101664960384  1.0000
  O   O4        1.0  0.7083164714276791  0.8210106734040892  0.6622112500481308  1.0000
  O   O5        1.0  0.14804031234234571  0.4540003165602684  0.34200798615347594  1.0000
  O   O6        1.0  0.46396324038505554  0.7185982652008533  0.793349560815841  1.0000
  O   O7        1.0  0.9628927502781153  0.2430167249403894  0.07971001928672194  1.0000
  O   O8        1.0  0.7827871767804027  0.9283097106963396  0.7308961413800716  1.0000
data_image191
_chemical_formula_structural       Cs4H4S4O8
_chemical_formula_sum              "Cs4 H4 S4 O8"
_cell_length_a       5.817371
_cell_length_b       6.411326074356613
_cell_length_c       12.038703921785974
_cell_angle_alpha    93.7344795294116
_cell_angle_beta     90.0
_cell_angle_gamma    116.97998093780937

_space_group_name_H-M_alt    "P 1"
_space_group_IT_number       1

loop_
  _space_group_symop_operation_xyz
  'x, y, z'

loop_
  _atom_site_type_symbol
  _atom_site_label
  _atom_site_symmetry_multiplicity
  _atom_site_fract_x
  _atom_site_fract_y
  _atom_site_fract_z
  _atom_site_occupancy
  Cs  Cs1       1.0  0.764323566108942  0.4818124920129776  0.40556003153324127  1.0000
  Cs  Cs2       1.0  0.08880875399336219  0.5428976491093636  0.29648566618561745  1.0000
  Cs  Cs3       1.0  0.2118784300982952  0.6984355822205544  0.9496385622769594  1.0000
  Cs  Cs4       1.0  0.36451005190610886  0.14850731939077377  0.931586854159832  1.0000
  H   H1        1.0  0.19521860778331757  0.10523459315299988  0.19635888934135437  1.0000
  H   H2        1.0  0.05772004276514053  0.16841142252087593  0.2511823922395706  1.0000
  H   H3        1.0  0.39898231625556946  0.9874199628829956  0.38019710779190063  1.0000
  H   H4        1.0  0.4601815789937973  0.23833703994750977  0.5684887394309044  1.0000
  S   S1        1.0  0.11043885350227356  0.7955572679638863  0.3568066284060478  1.0000
  S   S2        1.0  0.8770039118826389  0.022817522287368774  0.685644444078207  1.0000
  S   S3        1.0  0.33829713612794876  0.34083209186792374  0.9788451343774796  1.0000
  S   S4        1.0  0.7662626914680004  0.02496100589632988  0.9140621721744537  1.0000
  O   O1        1.0  0.3306126156821847  0.8850451912730932  0.01527603343129158  1.0000
  O   O2        1.0  0.2836890369653702  0.49371781200170517  0.4938452849164605  1.0000
  O   O3        1.0  0.20509151928126812  0.9969956204295158  0.8103551864624023  1.0000
  O   O4        1.0  0.49015627708286047  0.7252440450683935  0.8168384488672018  1.0000
  O   O5        1.0  0.8664145357906818  0.9785823742859066  0.6421403039130382  1.0000
  O   O6        1.0  0.022078581154346466  0.707598127424717  0.3160522012040019  1.0000
  O   O7        1.0  0.10943828709423542  0.2911503901705146  0.12433316418901086  1.0000
  O   O8        1.0  0.7639634003862739  0.2941748071461916  0.7064584083855152  1.0000
data_image192
_chemical_formula_structural       Cs4H4S4O8
_chemical_formula_sum              "Cs4 H4 S4 O8"
_cell_length_a       5.817371
_cell_length_b       6.411326074356613
_cell_length_c       12.038703921785974
_cell_angle_alpha    93.7344795294116
_cell_angle_beta     90.0
_cell_angle_gamma    116.97998093780937

_space_group_name_H-M_alt    "P 1"
_space_group_IT_number       1

loop_
  _space_group_symop_operation_xyz
  'x, y, z'

loop_
  _atom_site_type_symbol
  _atom_site_label
  _atom_site_symmetry_multiplicity
  _atom_site_fract_x
  _atom_site_fract_y
  _atom_site_fract_z
  _atom_site_occupancy
  Cs  Cs1       1.0  0.55594152957201  0.9106648042798042  0.9581544995307922  1.0000
  Cs  Cs2       1.0  0.8425616130698472  0.07502327486872673  0.7088650800287724  1.0000
  Cs  Cs3       1.0  0.647268995642662  0.4420776218175888  0.6517228372395039  1.0000
  Cs  Cs4       1.0  0.5730772763490677  0.5157846584916115  0.883875411003828  1.0000
  H   H1        1.0  0.0009496062994003296  0.058659717440605164  0.779172420501709  1.0000
  H   H2        1.0  0.2592481318861246  0.7686752546578646  0.25780709087848663  1.0000
  H   H3        1.0  0.07719293236732483  0.08415770530700684  0.7540155351161957  1.0000
  H   H4        1.0  0.5459885150194168  0.05303075909614563  0.4199041277170181  1.0000
  S   S1        1.0  0.1855042278766632  0.7363723069429398  0.10259764641523361  1.0000
  S   S2        1.0  0.8864824920892715  0.797947883605957  0.6056686416268349  1.0000
  S   S3        1.0  0.6335206851363182  0.928880512714386  0.5884741246700287  1.0000
  S   S4        1.0  0.34489283710718155  0.3061603866517544  0.8222097456455231  1.0000
  O   O1        1.0  0.9513124953955412  0.338480431586504  0.05151491053402424  1.0000
  O   O2        1.0  0.4167276956140995  0.638021782040596  0.4448721120133996  1.0000
  O   O3        1.0  0.8836771622300148  0.8514605462551117  0.6050403788685799  1.0000
  O   O4        1.0  0.4040103806182742  0.3503298100840766  0.6978992267977446  1.0000
  O   O5        1.0  0.49360167793929577  0.6040474008768797  0.018074165214784443  1.0000
  O   O6        1.0  0.5457492470741272  0.8897822685539722  0.08385795075446367  1.0000
  O   O7        1.0  0.3347055483609438  0.9370002071373165  0.3749402975663543  1.0000
  O   O8        1.0  0.3598149046301842  0.32844188809394836  0.32057296112179756  1.0000
data_image193
_chemical_formula_structural       Cs4H4S4O8
_chemical_formula_sum              "Cs4 H4 S4 O8"
_cell_length_a       5.817371
_cell_length_b       6.411326074356613
_cell_length_c       12.038703921785974
_cell_angle_alpha    93.7344795294116
_cell_angle_beta     90.0
_cell_angle_gamma    116.97998093780937

_space_group_name_H-M_alt    "P 1"
_space_group_IT_number       1

loop_
  _space_group_symop_operation_xyz
  'x, y, z'

loop_
  _atom_site_type_symbol
  _atom_site_label
  _atom_site_symmetry_multiplicity
  _atom_site_fract_x
  _atom_site_fract_y
  _atom_site_fract_z
  _atom_site_occupancy
  Cs  Cs1       1.0  0.617915440350771  0.5007506608963013  0.8871328234672546  1.0000
  Cs  Cs2       1.0  0.46201442554593086  0.02118384651839733  0.7855019941926003  1.0000
  Cs  Cs3       1.0  0.5119754709303379  0.860772155225277  0.8398548513650894  1.0000
  Cs  Cs4       1.0  0.8919471874833107  0.40545754134655  0.3882349543273449  1.0000
  H   H1        1.0  0.3720635920763016  0.989685446023941  0.5010407865047455  1.0000
  H   H2        1.0  0.6112218648195267  0.7213200852274895  0.058991435915231705  1.0000
  H   H3        1.0  0.3731320947408676  0.46568065881729126  0.9143880009651184  1.0000
  H   H4        1.0  0.2141256332397461  0.14279277622699738  0.06874560564756393  1.0000
  S   S1        1.0  0.22582462430000305  0.7892774343490601  0.1884298101067543  1.0000
  S   S2        1.0  0.12119637988507748  0.4835496246814728  0.6438101641833782  1.0000
  S   S3        1.0  0.3488832637667656  0.8068079948425293  0.6752538532018661  1.0000
  S   S4        1.0  0.13891972228884697  0.7600367665290833  0.42996177077293396  1.0000
  O   O1        1.0  0.9892361569218338  0.08887933380901814  0.6171737066470087  1.0000
  O   O2        1.0  0.4938426502048969  0.7535740919411182  0.9939642176032066  1.0000
  O   O3        1.0  0.9254533257335424  0.949297659099102  0.13464783877134323  1.0000
  O   O4        1.0  0.030682851560413837  0.9306596632522997  0.4370155041106045  1.0000
  O   O5        1.0  0.2320098550990224  0.437305421102792  0.8107201940729283  1.0000
  O   O6        1.0  0.42197851836681366  0.3958158306777477  0.9812416643835604  1.0000
  O   O7        1.0  0.3137714918702841  0.45014353143051267  0.8642590758390725  1.0000
  O   O8        1.0  0.23984667658805847  0.8824172858148813  0.936477392911911  1.0000
data_image194
_chemical_formula_structural       Cs4H4S4O8
_chemical_formula_sum              "Cs4 H4 S4 O8"
_cell_length_a       5.817371
_cell_length_b       6.411326074356613
_cell_length_c       12.038703921785974
_cell_angle_alpha    93.7344795294116
_cell_angle_beta     90.0
_cell_angle_gamma    116.97998093780937

_space_group_name_H-M_alt    "P 1"
_space_group_IT_number       1

loop_
  _space_group_symop_operation_xyz
  'x, y, z'

loop_
  _atom_site_type_symbol
  _atom_site_label
  _atom_site_symmetry_multiplicity
  _atom_site_fract_x
  _atom_site_fract_y
  _atom_site_fract_z
  _atom_site_occupancy
  Cs  Cs1       1.0  0.2989749126136303  0.07746554911136627  0.2620529867708683  1.0000
  Cs  Cs2       1.0  0.5418354973662645  0.17813856340944767  0.06290734559297562  1.0000
  Cs  Cs3       1.0  0.45907870307564735  0.9786624163389206  0.6609255373477936  1.0000
  Cs  Cs4       1.0  0.7037046998739243  0.6430593878030777  0.1460641846060753  1.0000
  H   H1        1.0  0.32869967818260193  0.5512622445821762  0.9270689487457275  1.0000
  H   H2        1.0  0.2668913475063164  0.5346761085093021  0.2700223922729492  1.0000
  H   H3        1.0  0.3287011981010437  0.5410957932472229  0.8379659950733185  1.0000
  H   H4        1.0  0.6466995030641556  0.3463628590106964  0.32285791635513306  1.0000
  S   S1        1.0  0.3211541175842285  0.7080615293234587  0.561739556491375  1.0000
  S   S2        1.0  0.4377345349639654  0.5013870298862457  0.2896759584546089  1.0000
  S   S3        1.0  0.5811096765100956  0.8756351321935654  0.8141330629587173  1.0000
  S   S4        1.0  0.8576646484434605  0.09587069973349571  0.42558911442756653  1.0000
  O   O1        1.0  0.5613437383435667  0.6820657923817635  0.16123227262869477  1.0000
  O   O2        1.0  0.9942251034080982  0.6779324747622013  0.23353573866188526  1.0000
  O   O3        1.0  0.7750296983867884  0.5447313040494919  0.7501735892146826  1.0000
  O   O4        1.0  0.7052974086254835  0.7394628092588391  0.6508001631591469  1.0000
  O   O5        1.0  0.37255045119673014  0.8297014543786645  0.5979021576349624  1.0000
  O   O6        1.0  0.645459346473217  0.06426471844315529  0.05160270584747195  1.0000
  O   O7        1.0  0.94700360391289  0.6258498900569975  0.4468725249171257  1.0000
  O   O8        1.0  0.6895073316991329  0.05661878548562527  0.09280167520046234  1.0000
data_image195
_chemical_formula_structural       Cs4H4S4O8
_chemical_formula_sum              "Cs4 H4 S4 O8"
_cell_length_a       5.817371
_cell_length_b       6.411326074356613
_cell_length_c       12.038703921785974
_cell_angle_alpha    93.7344795294116
_cell_angle_beta     90.0
_cell_angle_gamma    116.97998093780937

_space_group_name_H-M_alt    "P 1"
_space_group_IT_number       1

loop_
  _space_group_symop_operation_xyz
  'x, y, z'

loop_
  _atom_site_type_symbol
  _atom_site_label
  _atom_site_symmetry_multiplicity
  _atom_site_fract_x
  _atom_site_fract_y
  _atom_site_fract_z
  _atom_site_occupancy
  Cs  Cs1       1.0  0.7675362192094326  0.5613060519099236  0.7862051092088223  1.0000
  Cs  Cs2       1.0  0.42824221937917173  0.5329769747331738  0.052782646380364895  1.0000
  Cs  Cs3       1.0  0.04369289055466652  0.0008812546730041504  0.3299140799790621  1.0000
  Cs  Cs4       1.0  0.7757977023720741  0.4565443992614746  0.5581861287355423  1.0000
  H   H1        1.0  0.23189368844032288  0.6278069019317627  0.6850237548351288  1.0000
  H   H2        1.0  0.7827911502681673  0.8574568182229996  0.6197575926780701  1.0000
  H   H3        1.0  0.25118011236190796  0.4942634403705597  0.9563938081264496  1.0000
  H   H4        1.0  0.37731629610061646  0.2656969875097275  0.6946357190608978  1.0000
  S   S1        1.0  0.7632559537887573  0.3747551441192627  0.036104924976825714  1.0000
  S   S2        1.0  0.10264844354242086  0.5205393135547638  0.42254718393087387  1.0000
  S   S3        1.0  0.1554250307381153  0.0368172824382782  0.4406670033931732  1.0000
  S   S4        1.0  0.4792284816503525  0.3442518636584282  0.5530671030282974  1.0000
  O   O1        1.0  0.3683337145484984  0.12379485182464123  0.5997174913063645  1.0000
  O   O2        1.0  0.7682729102671146  0.1274016872048378  0.5000536879524589  1.0000
  O   O3        1.0  0.5600284859538078  0.6869184821844101  0.19730890356004238  1.0000
  O   O4        1.0  0.9453220581635833  0.7853114359022584  0.462759769288823  1.0000
  O   O5        1.0  0.7443694267421961  0.9947358262725174  0.21696144889574498  1.0000
  O   O6        1.0  0.4953644499182701  0.7384523190557957  0.3167235436849296  1.0000
  O   O7        1.0  0.892667202744633  0.3206994254142046  0.008969986345618963  1.0000
  O   O8        1.0  0.2318570762872696  0.9375634491443634  0.45324765145778656  1.0000
data_image196
_chemical_formula_structural       Cs4H4S4O8
_chemical_formula_sum              "Cs4 H4 S4 O8"
_cell_length_a       5.817371
_cell_length_b       6.411326074356613
_cell_length_c       12.038703921785974
_cell_angle_alpha    93.7344795294116
_cell_angle_beta     90.0
_cell_angle_gamma    116.97998093780937

_space_group_name_H-M_alt    "P 1"
_space_group_IT_number       1

loop_
  _space_group_symop_operation_xyz
  'x, y, z'

loop_
  _atom_site_type_symbol
  _atom_site_label
  _atom_site_symmetry_multiplicity
  _atom_site_fract_x
  _atom_site_fract_y
  _atom_site_fract_z
  _atom_site_occupancy
  Cs  Cs1       1.0  0.078487578779459  0.1053030863404274  0.9207309782505035  1.0000
  Cs  Cs2       1.0  0.6905161633621901  0.3507343688979745  0.12729306053370237  1.0000
  Cs  Cs3       1.0  0.7632115259766579  0.45281074941158295  0.19288265891373158  1.0000
  Cs  Cs4       1.0  0.5542370229959488  0.65416369587183  0.015325020998716354  1.0000
  H   H1        1.0  0.06967872381210327  0.01134239137172699  0.7717344760894775  1.0000
  H   H2        1.0  0.4552524033933878  0.48417266458272934  0.4122970700263977  1.0000
  H   H3        1.0  0.8679221272468567  0.4154597818851471  0.6380886137485504  1.0000
  H   H4        1.0  0.2837844043970108  0.8816078305244446  0.0958239734172821  1.0000
  S   S1        1.0  0.8918633759021759  0.035398442298173904  0.7916306853294373  1.0000
  S   S2        1.0  0.7455407325178385  0.6304221749305725  0.975121021270752  1.0000
  S   S3        1.0  0.16482581198215485  0.7077298015356064  0.8815445899963379  1.0000
  S   S4        1.0  0.31071610003709793  0.31800951436161995  0.5929128676652908  1.0000
  O   O1        1.0  0.27107923850417137  0.12846601009368896  0.5173025438562036  1.0000
  O   O2        1.0  0.7125796861946583  0.7314155250787735  0.48228518199175596  1.0000
  O   O3        1.0  0.5436516311019659  0.5316198393702507  0.5021657757461071  1.0000
  O   O4        1.0  0.5613418743014336  0.4940310828242218  0.38947005569934845  1.0000
  O   O5        1.0  0.11981411464512348  0.054022376891225576  0.37919869646430016  1.0000
  O   O6        1.0  0.6318706199526787  0.1485408991575241  0.9619935587979853  1.0000
  O   O7        1.0  0.9191668038256466  0.8675311654806137  0.6968885301612318  1.0000
  O   O8        1.0  0.9922655839473009  0.6729517113417387  0.2274649739265442  1.0000
data_image197
_chemical_formula_structural       Cs4H4S4O8
_chemical_formula_sum              "Cs4 H4 S4 O8"
_cell_length_a       5.817371
_cell_length_b       6.411326074356613
_cell_length_c       12.038703921785974
_cell_angle_alpha    93.7344795294116
_cell_angle_beta     90.0
_cell_angle_gamma    116.97998093780937

_space_group_name_H-M_alt    "P 1"
_space_group_IT_number       1

loop_
  _space_group_symop_operation_xyz
  'x, y, z'

loop_
  _atom_site_type_symbol
  _atom_site_label
  _atom_site_symmetry_multiplicity
  _atom_site_fract_x
  _atom_site_fract_y
  _atom_site_fract_z
  _atom_site_occupancy
  Cs  Cs1       1.0  0.231495700776577  0.360003225505352  0.6149614378809929  1.0000
  Cs  Cs2       1.0  0.3390904422849417  0.2489815717563033  0.21742595545947552  1.0000
  Cs  Cs3       1.0  0.13860200718045235  0.35623134672641754  0.34972486831247807  1.0000
  Cs  Cs4       1.0  0.8911875113844872  0.6748174428939819  0.8780920170247555  1.0000
  H   H1        1.0  0.10050871968269348  0.9258667528629303  0.5350120663642883  1.0000
  H   H2        1.0  0.9267162820324302  0.660916730761528  0.12329460680484772  1.0000
  H   H3        1.0  0.9606090635061264  0.821713000535965  0.07002526521682739  1.0000
  H   H4        1.0  0.649925485253334  0.13212160766124725  0.7898439690470695  1.0000
  S   S1        1.0  0.47918298840522766  0.24197235703468323  0.532726876437664  1.0000
  S   S2        1.0  0.09587161242961884  0.06493255496025085  0.18508341163396835  1.0000
  S   S3        1.0  0.4944685064256191  0.6812711507081985  0.9524093419313431  1.0000
  S   S4        1.0  0.8830530717968941  0.7826490737497807  0.42134664952754974  1.0000
  O   O1        1.0  0.5022029387764633  0.6965632271021605  0.23526259884238243  1.0000
  O   O2        1.0  0.34646933153271675  0.01806839555501938  0.27309735817834735  1.0000
  O   O3        1.0  0.7929814476519823  0.29075130820274353  0.16544121876358986  1.0000
  O   O4        1.0  0.9727762620896101  0.8586892657331191  0.030109238578006625  1.0000
  O   O5        1.0  0.4832324171438813  0.04210181860253215  0.6846757526509464  1.0000
  O   O6        1.0  0.5577341839671135  0.7332087233662605  0.8251575012691319  1.0000
  O   O7        1.0  0.1622991026379168  0.2566822678782046  0.18988054478541017  1.0000
  O   O8        1.0  0.13852528668940067  0.38998960331082344  0.4061122126877308  1.0000
data_image198
_chemical_formula_structural       Cs4H4S4O8
_chemical_formula_sum              "Cs4 H4 S4 O8"
_cell_length_a       5.817371
_cell_length_b       6.411326074356613
_cell_length_c       12.038703921785974
_cell_angle_alpha    93.7344795294116
_cell_angle_beta     90.0
_cell_angle_gamma    116.97998093780937

_space_group_name_H-M_alt    "P 1"
_space_group_IT_number       1

loop_
  _space_group_symop_operation_xyz
  'x, y, z'

loop_
  _atom_site_type_symbol
  _atom_site_label
  _atom_site_symmetry_multiplicity
  _atom_site_fract_x
  _atom_site_fract_y
  _atom_site_fract_z
  _atom_site_occupancy
  Cs  Cs1       1.0  0.5419442281126976  0.8185141906142235  0.5946055203676224  1.0000
  Cs  Cs2       1.0  0.38294674234930426  0.4701151195913553  0.7488630665466189  1.0000
  Cs  Cs3       1.0  0.8847252521663904  0.32735589146614075  0.3785774204879999  1.0000
  Cs  Cs4       1.0  0.8380030021071434  0.12507102638483047  0.5888663157820702  1.0000
  H   H1        1.0  0.24727146327495575  0.3220605105161667  0.6633586585521698  1.0000
  H   H2        1.0  0.2634162651374936  0.7910041138529778  0.8537799939513206  1.0000
  H   H3        1.0  0.19702890515327454  0.37359872460365295  0.34992751479148865  1.0000
  H   H4        1.0  0.11321935057640076  0.07352878153324127  0.30668459832668304  1.0000
  S   S1        1.0  0.15895810723304749  0.9821931309998035  0.24236493557691574  1.0000
  S   S2        1.0  0.7691635936498642  0.19280347228050232  0.396246038377285  1.0000
  S   S3        1.0  0.41726331412792206  0.382073238492012  0.3336467891931534  1.0000
  S   S4        1.0  0.8332895264029503  0.7392075313255191  0.4888312369585037  1.0000
  O   O1        1.0  0.7885921895503998  0.03044532611966133  0.4013892733491957  1.0000
  O   O2        1.0  0.6656282097101212  0.11532402411103249  0.8204825208522379  1.0000
  O   O3        1.0  0.7592951450496912  0.5803373754024506  0.7165568917989731  1.0000
  O   O4        1.0  0.04892033524811268  0.5098181303474121  0.9241763518657535  1.0000
  O   O5        1.0  0.8389804774196818  0.6602684678509831  0.02847255626693368  1.0000
  O   O6        1.0  0.43284808099269867  0.3089156039059162  0.9362624920904636  1.0000
  O   O7        1.0  0.6909115123562515  0.43710119975730777  0.9957930040545762  1.0000
  O   O8        1.0  0.4659413583576679  0.20433600433170795  0.30596809834241867  1.0000
data_image199
_chemical_formula_structural       Cs4H4S4O8
_chemical_formula_sum              "Cs4 H4 S4 O8"
_cell_length_a       5.817371
_cell_length_b       6.411326074356613
_cell_length_c       12.038703921785974
_cell_angle_alpha    93.7344795294116
_cell_angle_beta     90.0
_cell_angle_gamma    116.97998093780937

_space_group_name_H-M_alt    "P 1"
_space_group_IT_number       1

loop_
  _space_group_symop_operation_xyz
  'x, y, z'

loop_
  _atom_site_type_symbol
  _atom_site_label
  _atom_site_symmetry_multiplicity
  _atom_site_fract_x
  _atom_site_fract_y
  _atom_site_fract_z
  _atom_site_occupancy
  Cs  Cs1       1.0  0.5682117529213428  0.2141091227531433  0.04569524526596069  1.0000
  Cs  Cs2       1.0  0.4458272457122803  0.8147747181355953  0.7309410590678453  1.0000
  Cs  Cs3       1.0  0.878551434725523  0.006638325750827789  0.279045220464468  1.0000
  Cs  Cs4       1.0  0.8801358565688133  0.11609678715467453  0.6729306131601334  1.0000
  H   H1        1.0  0.586040586233139  0.6497365683317184  0.7901243567466736  1.0000
  H   H2        1.0  0.48899042420089245  0.08547807484865189  0.10024092346429825  1.0000
  H   H3        1.0  0.9290432780981064  0.6207330226898193  0.9822906255722046  1.0000
  H   H4        1.0  0.8280459195375443  0.21593359112739563  0.3713892251253128  1.0000
  S   S1        1.0  0.23194801807403564  0.7200195272453129  0.432327039539814  1.0000
  S   S2        1.0  0.9049794226884842  0.07186153531074524  0.2960008308291435  1.0000
  S   S3        1.0  0.8174197226762772  0.052799999713897705  0.4378459304571152  1.0000
  S   S4        1.0  0.2787722535431385  0.3532055262476206  0.2565780431032181  1.0000
  O   O1        1.0  0.2734730984084308  0.7410479225218296  0.8962621395476162  1.0000
  O   O2        1.0  0.4306730516254902  0.7285992950201035  0.2772358641959727  1.0000
  O   O3        1.0  0.5159211624413729  0.8073630332946777  0.5988673362880945  1.0000
  O   O4        1.0  0.869912963360548  0.5784588553651702  0.18677650578320026  1.0000
  O   O5        1.0  0.7420799426035956  0.9872843459015712  0.916564829647541  1.0000
  O   O6        1.0  0.28406063467264175  0.9953792877495289  0.04853380052372813  1.0000
  O   O7        1.0  0.25359653355553746  0.596014098264277  0.12809684872627258  1.0000
  O   O8        1.0  0.32818722911179066  0.840271046385169  0.10037566721439362  1.0000
data_image200
_chemical_formula_structural       Cs4H4S4O8
_chemical_formula_sum              "Cs4 H4 S4 O8"
_cell_length_a       5.817371
_cell_length_b       6.411326074356613
_cell_length_c       12.038703921785974
_cell_angle_alpha    93.7344795294116
_cell_angle_beta     90.0
_cell_angle_gamma    116.97998093780937

_space_group_name_H-M_alt    "P 1"
_space_group_IT_number       1

loop_
  _space_group_symop_operation_xyz
  'x, y, z'

loop_
  _atom_site_type_symbol
  _atom_site_label
  _atom_site_symmetry_multiplicity
  _atom_site_fract_x
  _atom_site_fract_y
  _atom_site_fract_z
  _atom_site_occupancy
  Cs  Cs1       1.0  0.42920660227537155  0.5787404626607895  0.30878961831331253  1.0000
  Cs  Cs2       1.0  0.940809715539217  0.06973042048048228  0.3437102288007736  1.0000
  Cs  Cs3       1.0  0.023029372096061707  0.4772498682141304  0.17707675695419312  1.0000
  Cs  Cs4       1.0  0.5198220014572144  0.8396669626235962  0.4176488444209099  1.0000
  H   H1        1.0  0.09531725943088531  0.02329009771347046  0.35889068245887756  1.0000
  H   H2        1.0  0.21333103626966476  0.37463361769914627  0.48239654302597046  1.0000
  H   H3        1.0  0.8970848917961121  0.10239383578300476  0.4069480001926422  1.0000
  H   H4        1.0  0.5433051735162735  0.09028197824954987  0.6448422968387604  1.0000
  S   S1        1.0  0.1752176284790039  0.26535396464169025  0.22381962835788727  1.0000
  S   S2        1.0  0.4973452091217041  0.3909154534339905  0.3314060568809509  1.0000
  S   S3        1.0  0.43286649882793427  0.8703662008047104  0.6046598851680756  1.0000
  S   S4        1.0  0.6705480767413974  0.20257821306586266  0.9081073254346848  1.0000
  O   O1        1.0  0.4508730205707252  0.21557428315281868  0.9518273221328855  1.0000
  O   O2        1.0  0.04365552216768265  0.33809299767017365  0.6836305013857782  1.0000
  O   O3        1.0  0.5690464144572616  0.35615918040275574  0.8139378260821104  1.0000
  O   O4        1.0  0.35854845121502876  0.3109992081299424  0.4019207109231502  1.0000
  O   O5        1.0  0.649697448592633  0.3555812065023929  0.008008362725377083  1.0000
  O   O6        1.0  0.12621242552995682  0.7257170267403126  0.08533455757424235  1.0000
  O   O7        1.0  0.6885616974905133  0.6662366902455688  0.42111167730763555  1.0000
  O   O8        1.0  0.868180550634861  0.9244419354945421  0.12165000662207603  1.0000
