data_image0
_chemical_formula_structural       Sr2Cu2H12O10
_chemical_formula_sum              "Sr2 Cu2 H12 O10"
_cell_length_a       6.296725
_cell_length_b       5.467378000000002
_cell_length_c       7.977295878227032
_cell_angle_alpha    72.20561901156641
_cell_angle_beta     90.0
_cell_angle_gamma    90.0

_space_group_name_H-M_alt    "P 1"
_space_group_IT_number       1

loop_
  _space_group_symop_operation_xyz
  'x, y, z'

loop_
  _atom_site_type_symbol
  _atom_site_label
  _atom_site_symmetry_multiplicity
  _atom_site_fract_x
  _atom_site_fract_y
  _atom_site_fract_z
  _atom_site_occupancy
  Sr  Sr1       1.0  0.449404  2.0306315470142298e-17  0.25  1.0000
  Sr  Sr2       1.0  0.550596  0.0  0.7500000000000001  1.0000
  Cu  Cu1       1.0  0.0  0.0  0.0  1.0000
  Cu  Cu2       1.0  1.4345677530164706e-49  4.0612630940284596e-17  0.5  1.0000
  H   H1        1.0  0.053345  0.36710299999999996  0.10588200000000002  1.0000
  H   H2        1.0  0.705852  0.5675220000000001  0.14570599999999997  1.0000
  H   H3        1.0  0.705852  0.4324780000000001  0.354294  1.0000
  H   H4        1.0  0.736374  0.6629789999999999  0.5242659999999999  1.0000
  H   H5        1.0  0.294148  0.5675220000000001  0.6457060000000001  1.0000
  H   H6        1.0  0.263626  0.33702100000000007  0.47573400000000005  1.0000
  H   H7        1.0  0.294148  0.4324780000000001  0.8542940000000001  1.0000
  H   H8        1.0  0.736374  0.3370210000000001  0.9757340000000001  1.0000
  H   H9        1.0  0.946655  0.36710299999999996  0.6058820000000001  1.0000
  H   H10       1.0  0.263626  0.6629790000000001  0.02426599999999999  1.0000
  H   H11       1.0  0.946655  0.632897  0.8941180000000001  1.0000
  H   H12       1.0  0.053345  0.6328969999999999  0.394118  1.0000
  O   O1        1.0  0.842432  0.7171290000000002  0.948199  1.0000
  O   O2        1.0  0.38908200000000004  0.5000000000000001  0.7500000000000001  1.0000
  O   O3        1.0  0.278226  0.8486000000000001  0.00020799999999999026  1.0000
  O   O4        1.0  0.721774  0.8486000000000001  0.500208  1.0000
  O   O5        1.0  0.721774  0.15140000000000006  0.999792  1.0000
  O   O6        1.0  0.842432  0.28287099999999993  0.551801  1.0000
  O   O7        1.0  0.610918  0.5  0.25  1.0000
  O   O8        1.0  0.157568  0.28287100000000004  0.05180099999999999  1.0000
  O   O9        1.0  0.278226  0.15140000000000003  0.49979200000000007  1.0000
  O   O10       1.0  0.157568  0.717129  0.44819900000000007  1.0000
data_image1
_chemical_formula_structural       Sr2Cu2H12O10
_chemical_formula_sum              "Sr2 Cu2 H12 O10"
_cell_length_a       6.296725
_cell_length_b       5.467378000000002
_cell_length_c       7.977295878227032
_cell_angle_alpha    72.20561901156641
_cell_angle_beta     90.0
_cell_angle_gamma    90.0

_space_group_name_H-M_alt    "P 1"
_space_group_IT_number       1

loop_
  _space_group_symop_operation_xyz
  'x, y, z'

loop_
  _atom_site_type_symbol
  _atom_site_label
  _atom_site_symmetry_multiplicity
  _atom_site_fract_x
  _atom_site_fract_y
  _atom_site_fract_z
  _atom_site_occupancy
  Sr  Sr1       1.0  0.45877201979315013  0.9778753049330684  0.23566905987218967  1.0000
  Sr  Sr2       1.0  0.4897567053373202  0.04666670132135972  0.7437550230106645  1.0000
  Cu  Cu1       1.0  0.03882885909522931  0.045199997668183375  0.9608834435934355  1.0000
  Cu  Cu2       1.0  0.9899024794304149  0.9844173900351468  0.4908943324090991  1.0000
  H   H1        1.0  0.1111842212447855  0.36395542150597104  0.26670594742834014  1.0000
  H   H2        1.0  0.9888120364066908  0.6744729448804825  0.15306636652294042  1.0000
  H   H3        1.0  0.7640860929829012  0.38494178818728797  0.3589526730405427  1.0000
  H   H4        1.0  0.8483896157824571  0.5873109199863925  0.5533636929019352  1.0000
  H   H5        1.0  0.49545528740096056  0.11339720642241928  0.9705566267241739  1.0000
  H   H6        1.0  0.3085843987134327  0.4067313194919551  0.46612271606724465  1.0000
  H   H7        1.0  0.48259447353916707  0.466030125088852  0.7179640788605764  1.0000
  H   H8        1.0  0.6992427241610967  0.5276547476322684  0.9953948602251701  1.0000
  H   H9        1.0  0.9502949056287486  0.3492268543453746  0.48221512275420814  1.0000
  H   H10       1.0  0.3711438914756964  0.9247392088405522  0.5810436218982851  1.0000
  H   H11       1.0  0.014083734401308723  0.57979452726306  0.9486835067652772  1.0000
  H   H12       1.0  0.23198631591193908  0.7172380099108487  0.5167166667498815  1.0000
  O   O1        1.0  0.8762157513642028  0.6695849884284344  0.011545910156947947  1.0000
  O   O2        1.0  0.4383804870481486  0.5115682916072014  0.8267269197212718  1.0000
  O   O3        1.0  0.37473623316402144  0.976591821458102  0.9918039302690125  1.0000
  O   O4        1.0  0.7432485754238667  0.7515469534474354  0.5774472510958228  1.0000
  O   O5        1.0  0.7277288594146692  0.23091345073860553  0.992773673984836  1.0000
  O   O6        1.0  0.8637977571698471  0.23663432836789874  0.5712309403382033  1.0000
  O   O7        1.0  0.6503904007061592  0.46281984607783844  0.2780048767981115  1.0000
  O   O8        1.0  0.18791081692827774  0.2547400734708339  0.1377411439479592  1.0000
  O   O9        1.0  0.2680076180338866  0.21432896041451893  0.47252811165320585  1.0000
  O   O10       1.0  0.10355752183754346  0.7127681748859414  0.4270460900858145  1.0000
data_image2
_chemical_formula_structural       Sr2Cu2H12O10
_chemical_formula_sum              "Sr2 Cu2 H12 O10"
_cell_length_a       6.296725
_cell_length_b       5.467378000000002
_cell_length_c       7.977295878227032
_cell_angle_alpha    72.20561901156641
_cell_angle_beta     90.0
_cell_angle_gamma    90.0

_space_group_name_H-M_alt    "P 1"
_space_group_IT_number       1

loop_
  _space_group_symop_operation_xyz
  'x, y, z'

loop_
  _atom_site_type_symbol
  _atom_site_label
  _atom_site_symmetry_multiplicity
  _atom_site_fract_x
  _atom_site_fract_y
  _atom_site_fract_z
  _atom_site_occupancy
  Sr  Sr1       1.0  0.5348376135225408  0.38402025276354834  0.8689508368097449  1.0000
  Sr  Sr2       1.0  0.1131793491517783  0.7942745923210168  0.4286767930534552  1.0000
  Cu  Cu1       1.0  0.2336963626302193  0.11465248721502519  0.20389492128306586  1.0000
  Cu  Cu2       1.0  0.6335526219929761  0.7803937690223393  0.005598660960458801  1.0000
  H   H1        1.0  0.3888684927120494  0.2254352192596798  0.06552830312944025  1.0000
  H   H2        1.0  0.036148275421510334  0.27318224716873374  0.28652171352223377  1.0000
  H   H3        1.0  0.05508139797166223  0.24190200223529246  0.4451763572724303  1.0000
  H   H4        1.0  0.872768756467849  0.592187627335079  0.5734086727024987  1.0000
  H   H5        1.0  0.09513254017292638  0.5106755626657105  0.5596062484783033  1.0000
  H   H6        1.0  0.1774733009690408  0.7686821039844745  0.027849064806304114  1.0000
  H   H7        1.0  0.6755675204184968  0.46956654631802053  0.6661308214063979  1.0000
  H   H8        1.0  0.28702187139526814  0.8666879414200821  0.32303774534517515  1.0000
  H   H9        1.0  0.6456122055944888  0.8330718433940092  0.6650312831675365  1.0000
  H   H10       1.0  0.3446472659156825  0.2112677188397356  0.47001996406470425  1.0000
  H   H11       1.0  0.5027701433355105  0.5288955581199843  0.7567700063809752  1.0000
  H   H12       1.0  0.042898812598195946  0.122655908536899  0.8004702038840605  1.0000
  O   O1        1.0  0.5136789741849412  0.3102978251098989  0.5843863025082783  1.0000
  O   O2        1.0  0.47584893680095774  0.4024204979280057  0.4397821045949968  1.0000
  O   O3        1.0  0.9023348177806838  0.3187733898303122  0.5429824953271236  1.0000
  O   O4        1.0  0.015776513986565988  0.7448437598691271  0.5005919274958615  1.0000
  O   O5        1.0  0.6439253214884957  0.9810237610836339  0.5291299322971099  1.0000
  O   O6        1.0  0.6918325941630741  0.5876613472945564  0.4471775145303809  1.0000
  O   O7        1.0  0.2359631980962149  0.163637461111648  0.20370539003670274  1.0000
  O   O8        1.0  0.11090585943881592  0.34243572285299706  0.5203552115095391  1.0000
  O   O9        1.0  0.6115496378646412  0.08539859455299847  0.1262686619049873  1.0000
  O   O10       1.0  0.49071303362507024  0.6398567443593492  0.5130802219146062  1.0000
data_image3
_chemical_formula_structural       Sr2Cu2H12O10
_chemical_formula_sum              "Sr2 Cu2 H12 O10"
_cell_length_a       6.296725
_cell_length_b       5.467378000000002
_cell_length_c       7.977295878227032
_cell_angle_alpha    72.20561901156641
_cell_angle_beta     90.0
_cell_angle_gamma    90.0

_space_group_name_H-M_alt    "P 1"
_space_group_IT_number       1

loop_
  _space_group_symop_operation_xyz
  'x, y, z'

loop_
  _atom_site_type_symbol
  _atom_site_label
  _atom_site_symmetry_multiplicity
  _atom_site_fract_x
  _atom_site_fract_y
  _atom_site_fract_z
  _atom_site_occupancy
  Sr  Sr1       1.0  0.13052216290088836  0.7833232205011882  0.4900600456094253  1.0000
  Sr  Sr2       1.0  0.7022509954758789  0.6699169214989524  0.6486044949299412  1.0000
  Cu  Cu1       1.0  0.9822949557383254  0.26346543034742353  0.24775383694213815  1.0000
  Cu  Cu2       1.0  0.7620676830481443  0.8033927158248844  0.21484301274176687  1.0000
  H   H1        1.0  0.1180990306311287  0.6419026575376847  0.6327288724023674  1.0000
  H   H2        1.0  0.33819831331493333  0.6605987738148542  0.12493693506985437  1.0000
  H   H3        1.0  0.17446768149966374  0.8497118827654049  0.051807042327709496  1.0000
  H   H4        1.0  0.09384152898564935  0.41947942366823554  0.10204653744585812  1.0000
  H   H5        1.0  0.4096815649609198  0.9126807199063478  0.5827441540604923  1.0000
  H   H6        1.0  0.2939963979424647  0.8208697141199082  0.23013874900516385  1.0000
  H   H7        1.0  0.6257582473722323  0.9186667974709053  0.13348959959299123  1.0000
  H   H8        1.0  0.6175307818029978  0.6602417538961163  0.36450830586272787  1.0000
  H   H9        1.0  0.37720659469073325  0.19839232666708995  0.23720802408752206  1.0000
  H   H10       1.0  0.039445244548005576  0.0532855317405847  0.5179863798257429  1.0000
  H   H11       1.0  0.7766694859310519  0.88391657237662  0.9823315857211128  1.0000
  H   H12       1.0  0.9128004467311257  0.9173286859731888  0.3638662435655533  1.0000
  O   O1        1.0  0.941220757168935  0.5648607473131051  0.04737787344311073  1.0000
  O   O2        1.0  0.8686180563909147  0.3689079962141477  0.8752559457589086  1.0000
  O   O3        1.0  0.9283835634996649  0.7373555664125888  0.9606520524330335  1.0000
  O   O4        1.0  0.266399782294684  0.016231502211667248  0.3913543018607015  1.0000
  O   O5        1.0  0.05597279372977937  0.6902962209915131  0.011966058127654833  1.0000
  O   O6        1.0  0.4021813539497998  0.06436679857597483  0.3051191636844237  1.0000
  O   O7        1.0  0.750881645048139  0.40396917576435953  0.9149646561563713  1.0000
  O   O8        1.0  0.39341016464527456  0.09885941307084067  0.7121479772533803  1.0000
  O   O9        1.0  0.641557615907459  0.9169305062068815  0.01796060401829891  1.0000
  O   O10       1.0  0.184592891309876  0.7943878983351169  0.17171023061018786  1.0000
data_image4
_chemical_formula_structural       Sr2Cu2H12O10
_chemical_formula_sum              "Sr2 Cu2 H12 O10"
_cell_length_a       6.296725
_cell_length_b       5.467378000000002
_cell_length_c       7.977295878227032
_cell_angle_alpha    72.20561901156641
_cell_angle_beta     90.0
_cell_angle_gamma    90.0

_space_group_name_H-M_alt    "P 1"
_space_group_IT_number       1

loop_
  _space_group_symop_operation_xyz
  'x, y, z'

loop_
  _atom_site_type_symbol
  _atom_site_label
  _atom_site_symmetry_multiplicity
  _atom_site_fract_x
  _atom_site_fract_y
  _atom_site_fract_z
  _atom_site_occupancy
  Sr  Sr1       1.0  0.03702529000292998  0.5731016060599359  0.584823154102196  1.0000
  Sr  Sr2       1.0  0.10286700104370539  0.6994698923372198  0.5614064054252594  1.0000
  Cu  Cu1       1.0  0.7708230029784318  0.7082233331166208  0.4914930442973855  1.0000
  Cu  Cu2       1.0  0.6721480661863097  0.8527471424313262  0.14153427988640033  1.0000
  H   H1        1.0  0.9600744314193435  0.16071363498849678  0.20521181158255786  1.0000
  H   H2        1.0  0.48928594203607645  0.24403035471914336  0.930406692190445  1.0000
  H   H3        1.0  0.7113476873491891  0.4361008855048567  0.8686407133500325  1.0000
  H   H4        1.0  0.7506252131424844  0.6886976505629718  0.01229107566177845  1.0000
  H   H5        1.0  0.2796430808812147  0.9050451847724617  0.10217037191614509  1.0000
  H   H6        1.0  0.17921562173069105  0.9594534671805377  0.19637458892157156  1.0000
  H   H7        1.0  0.5771971645644953  0.8478033886294725  0.6179342486611858  1.0000
  H   H8        1.0  0.4142944619870832  0.15432927973233745  0.22488360324859968  1.0000
  H   H9        1.0  0.5402832833715365  0.4274332349141332  0.9466559862630675  1.0000
  H   H10       1.0  0.07576843761125929  0.9980402704186417  0.9819567466474837  1.0000
  H   H11       1.0  0.6534361926314887  0.7460229927091859  0.533470067079179  1.0000
  H   H12       1.0  0.1557047953356232  0.1352623484617652  0.34561215461599204  1.0000
  O   O1        1.0  0.607311375268182  0.4850946817314252  0.5548612983293424  1.0000
  O   O2        1.0  0.2389912828875822  0.9539173180974103  0.8771867494797334  1.0000
  O   O3        1.0  0.8877924549888121  0.3761443556868471  0.952377324054396  1.0000
  O   O4        1.0  0.31341556062216114  0.5287249131433782  0.1556002110864938  1.0000
  O   O5        1.0  0.5804230892426858  0.5749726995454694  0.5312593907547125  1.0000
  O   O6        1.0  0.32886902770951565  0.12986068581449217  0.08209579192725869  1.0000
  O   O7        1.0  0.11624215079791611  0.37373850971926004  0.6295251862175064  1.0000
  O   O8        1.0  0.9758711589754512  0.5091820995612579  0.11992218936666177  1.0000
  O   O9        1.0  0.01674519369794325  0.12550399363954057  0.8537788174689922  1.0000
  O   O10       1.0  0.6381502023868961  0.1201512580155395  0.9523414143404807  1.0000
data_image5
_chemical_formula_structural       Sr2Cu2H12O10
_chemical_formula_sum              "Sr2 Cu2 H12 O10"
_cell_length_a       6.296725
_cell_length_b       5.467378000000002
_cell_length_c       7.977295878227032
_cell_angle_alpha    72.20561901156641
_cell_angle_beta     90.0
_cell_angle_gamma    90.0

_space_group_name_H-M_alt    "P 1"
_space_group_IT_number       1

loop_
  _space_group_symop_operation_xyz
  'x, y, z'

loop_
  _atom_site_type_symbol
  _atom_site_label
  _atom_site_symmetry_multiplicity
  _atom_site_fract_x
  _atom_site_fract_y
  _atom_site_fract_z
  _atom_site_occupancy
  Sr  Sr1       1.0  0.8590556217677658  0.6492671690066345  0.021454896923387423  1.0000
  Sr  Sr2       1.0  0.9885693391570385  0.9779132271651179  0.293357793800169  1.0000
  Cu  Cu1       1.0  0.030449909794697305  0.4623302362742834  0.38383703415092896  1.0000
  Cu  Cu2       1.0  0.2461611230332892  0.6713248138257768  0.2968107766355388  1.0000
  H   H1        1.0  0.7878460183928837  0.9864923170680413  0.22465953313803766  1.0000
  H   H2        1.0  0.46550085489434423  0.09742264443775639  0.6643105781258782  1.0000
  H   H3        1.0  0.24410772853298113  0.4237529246020131  0.4239463450212497  1.0000
  H   H4        1.0  0.03972352063283324  0.44851391669362783  0.5085585229098797  1.0000
  H   H5        1.0  0.40402788243591203  0.9195124978577951  0.435051762702642  1.0000
  H   H6        1.0  0.5818317223120175  0.6028015087267704  0.88083291289513  1.0000
  H   H7        1.0  0.8728450530034024  0.1732540227167192  0.8176219989682068  1.0000
  H   H8        1.0  0.12877744249999523  0.7989336032624124  0.8062270925147459  1.0000
  H   H9        1.0  0.6036728398330524  0.22670247178484715  0.8639684407098684  1.0000
  H   H10       1.0  0.6486333579741768  0.741856402506528  0.015849998024350498  1.0000
  H   H11       1.0  0.8949262865062337  0.8486031968495809  0.3059218645794317  1.0000
  H   H12       1.0  0.7444867585072643  0.6122388837320614  0.2699413698308035  1.0000
  O   O1        1.0  0.07770440514286747  0.003704924223711714  0.7800591003178852  1.0000
  O   O2        1.0  0.30978100746142445  0.9367614487946412  0.6984600634586968  1.0000
  O   O3        1.0  0.15440805529942736  0.027909261792956386  0.42850248114336864  1.0000
  O   O4        1.0  0.12132768578521791  0.7502133682428394  0.11670911084183899  1.0000
  O   O5        1.0  0.37549409238272347  0.40374495048672543  0.6743455073137739  1.0000
  O   O6        1.0  0.5841298039995308  0.8282519881031476  0.565931005481616  1.0000
  O   O7        1.0  0.65584102610228  0.3350747342919931  0.01931191809126176  1.0000
  O   O8        1.0  0.7861094490890537  0.6180682215936031  0.3068700961734976  1.0000
  O   O9        1.0  0.16172065203272723  0.8562327478721272  0.3321569886702491  1.0000
  O   O10       1.0  0.9578515457906178  0.8947637681776541  0.8626592565269675  1.0000
data_image6
_chemical_formula_structural       Sr2Cu2H12O10
_chemical_formula_sum              "Sr2 Cu2 H12 O10"
_cell_length_a       6.296725
_cell_length_b       5.467378000000002
_cell_length_c       7.977295878227032
_cell_angle_alpha    72.20561901156641
_cell_angle_beta     90.0
_cell_angle_gamma    90.0

_space_group_name_H-M_alt    "P 1"
_space_group_IT_number       1

loop_
  _space_group_symop_operation_xyz
  'x, y, z'

loop_
  _atom_site_type_symbol
  _atom_site_label
  _atom_site_symmetry_multiplicity
  _atom_site_fract_x
  _atom_site_fract_y
  _atom_site_fract_z
  _atom_site_occupancy
  Sr  Sr1       1.0  0.8746709977931459  0.5648207073681988  0.3034484674280975  1.0000
  Sr  Sr2       1.0  0.681263450125698  0.7806192364078015  0.7452630404586671  1.0000
  Cu  Cu1       1.0  0.09414244037907338  0.8639961354347179  0.8788844610244269  1.0000
  Cu  Cu2       1.0  0.8555492596797194  0.3741524050128646  0.7199097555712797  1.0000
  H   H1        1.0  0.8033173804433318  0.9814961525553372  0.3131915996345924  1.0000
  H   H2        1.0  0.5706838907935889  0.897205154542462  0.4606904456668417  1.0000
  H   H3        1.0  0.8607477515470237  0.0463035274296999  0.32129287609132007  1.0000
  H   H4        1.0  0.9786472613923252  0.15994165278971195  0.6376045695506036  1.0000
  H   H5        1.0  0.7665054331446299  0.2643759110214887  0.6851649492746219  1.0000
  H   H6        1.0  0.2415943613877971  0.3625573215931581  0.5193968071405379  1.0000
  H   H7        1.0  0.6146304271660483  0.8624837454990484  0.7971552915623761  1.0000
  H   H8        1.0  0.36137837209389545  0.5395689873839729  0.36144990025786683  1.0000
  H   H9        1.0  0.5189323243060926  0.1651265099562238  0.7991839198584785  1.0000
  H   H10       1.0  0.631983142646277  0.8990334457448625  0.4023753164947266  1.0000
  H   H11       1.0  0.9382413928979076  0.29348458140157163  0.6273842720547691  1.0000
  H   H12       1.0  0.3822988133324543  0.14219570875138743  0.3610429095356267  1.0000
  O   O1        1.0  0.1798733194009401  0.1005950937687885  0.6635995891483617  1.0000
  O   O2        1.0  0.7770914436841849  0.5743988413778425  0.49886404624339775  1.0000
  O   O3        1.0  0.8727256904821843  0.7509773124620551  0.7061981736624148  1.0000
  O   O4        1.0  0.15314196077270026  0.4069930546265823  0.028870579746580916  1.0000
  O   O5        1.0  0.30542530142520263  0.03329244712222135  0.5349227104761667  1.0000
  O   O6        1.0  0.431905324933723  0.6868751450601849  0.8093108264583861  1.0000
  O   O7        1.0  0.8397464339795988  0.6990873333998024  0.188597530752304  1.0000
  O   O8        1.0  0.5503056899506191  0.18454996934997325  0.35574178464605666  1.0000
  O   O9        1.0  0.9902632464315957  0.6647363878582837  0.09455946726666298  1.0000
  O   O10       1.0  0.33578670860879356  0.6696941060727113  0.9557526890930603  1.0000
data_image7
_chemical_formula_structural       Sr2Cu2H12O10
_chemical_formula_sum              "Sr2 Cu2 H12 O10"
_cell_length_a       6.296725
_cell_length_b       5.467378000000002
_cell_length_c       7.977295878227032
_cell_angle_alpha    72.20561901156641
_cell_angle_beta     90.0
_cell_angle_gamma    90.0

_space_group_name_H-M_alt    "P 1"
_space_group_IT_number       1

loop_
  _space_group_symop_operation_xyz
  'x, y, z'

loop_
  _atom_site_type_symbol
  _atom_site_label
  _atom_site_symmetry_multiplicity
  _atom_site_fract_x
  _atom_site_fract_y
  _atom_site_fract_z
  _atom_site_occupancy
  Sr  Sr1       1.0  0.43700287875981303  0.18057982859318145  0.7917135573079577  1.0000
  Sr  Sr2       1.0  0.8025715413386934  0.49686401849612594  0.32477615226525813  1.0000
  Cu  Cu1       1.0  0.39891384402289987  0.10867069463711232  0.06968025484820828  1.0000
  Cu  Cu2       1.0  0.835992261400861  0.9581240020343103  0.46296803356381133  1.0000
  H   H1        1.0  0.06207500739492389  0.6319392900040839  0.07601938973675715  1.0000
  H   H2        1.0  0.4960506893985439  0.5555240583526029  0.8182193879802071  1.0000
  H   H3        1.0  0.6782131705258507  0.47733925544889644  0.25929256808012724  1.0000
  H   H4        1.0  0.7774934181943536  0.5702143348753452  0.290057638194412  1.0000
  H   H5        1.0  0.6902371053292882  0.30879967390501406  0.21298055670922622  1.0000
  H   H6        1.0  0.9444913171796543  0.038434311160983725  0.012806189049229033  1.0000
  H   H7        1.0  0.6853558549883019  0.6558913158951327  0.37935051834210753  1.0000
  H   H8        1.0  0.9910558280826081  0.6144162074633641  0.16040818105102517  1.0000
  H   H9        1.0  0.28957660918263173  0.6667182906785456  0.019025265421078075  1.0000
  H   H10       1.0  0.6424989709084912  0.0082216176269867  0.29673828439990757  1.0000
  H   H11       1.0  0.3854237271589227  0.6229717942769639  0.22724538680631667  1.0000
  H   H12       1.0  0.6491868038719986  0.7515368093445431  0.6628656438915641  1.0000
  O   O1        1.0  0.1864991085458314  0.4749368041520938  0.20219060043018544  1.0000
  O   O2        1.0  0.741605593902932  0.04634972199346521  0.2229985920512263  1.0000
  O   O3        1.0  0.34550149546703324  0.9655516804923536  0.08079254363838118  1.0000
  O   O4        1.0  0.7307962357026554  0.23337105789869383  0.8810835286512884  1.0000
  O   O5        1.0  0.8897151140809001  0.6027297600467136  0.3379403607759741  1.0000
  O   O6        1.0  0.6150044449839243  0.26502948881534394  0.3895459289142309  1.0000
  O   O7        1.0  0.7327780351915862  0.03767991391941905  0.7742876599368174  1.0000
  O   O8        1.0  0.3659703714420175  0.0005299998447299004  0.6509197935436077  1.0000
  O   O9        1.0  0.5250444167431851  0.7623310554481577  0.562713212428207  1.0000
  O   O10       1.0  0.16527541386312805  0.5066286107467022  0.5393598096707137  1.0000
data_image8
_chemical_formula_structural       Sr2Cu2H12O10
_chemical_formula_sum              "Sr2 Cu2 H12 O10"
_cell_length_a       6.296725
_cell_length_b       5.467378000000002
_cell_length_c       7.977295878227032
_cell_angle_alpha    72.20561901156641
_cell_angle_beta     90.0
_cell_angle_gamma    90.0

_space_group_name_H-M_alt    "P 1"
_space_group_IT_number       1

loop_
  _space_group_symop_operation_xyz
  'x, y, z'

loop_
  _atom_site_type_symbol
  _atom_site_label
  _atom_site_symmetry_multiplicity
  _atom_site_fract_x
  _atom_site_fract_y
  _atom_site_fract_z
  _atom_site_occupancy
  Sr  Sr1       1.0  0.6146884781555855  0.3659409839019645  0.7108998262119712  1.0000
  Sr  Sr2       1.0  0.5079602483601775  0.09116480906959623  0.254734266520245  1.0000
  Cu  Cu1       1.0  0.956283584353514  0.8602602365426719  0.807673076633364  1.0000
  Cu  Cu2       1.0  0.6063945569021598  0.7315524840960279  0.12921842819196172  1.0000
  H   H1        1.0  0.08472832901679794  0.5350296761025675  0.741563304043666  1.0000
  H   H2        1.0  0.469707916257903  0.2526902744339168  0.012713677904685028  1.0000
  H   H3        1.0  0.9372367321630009  0.8758801832445897  0.539150786382379  1.0000
  H   H4        1.0  0.10485733719542623  0.9974366147071123  0.9956185286864638  1.0000
  H   H5        1.0  0.0020061881514266133  0.017796961532440037  0.09312048956053331  1.0000
  H   H6        1.0  0.7067528429853525  0.8001759932385539  0.7397154714003591  1.0000
  H   H7        1.0  0.27764310697602923  0.8082967439258937  0.6298701000923757  1.0000
  H   H8        1.0  0.23545112936699297  0.7442621973750647  0.12026424797659274  1.0000
  H   H9        1.0  0.0501627037893968  0.5280852140422212  0.4870823372330051  1.0000
  H   H10       1.0  0.7457991268383921  0.8786441814227146  0.1997045385360252  1.0000
  H   H11       1.0  0.23269460897427052  0.08539160259533674  0.7121169990859926  1.0000
  H   H12       1.0  0.736053626780631  0.6107190760740195  0.0014655125778517686  1.0000
  O   O1        1.0  0.7048209255735856  0.6378407146257814  0.21088275954389246  1.0000
  O   O2        1.0  0.2369786575291073  0.36837688321611495  0.5813362209883053  1.0000
  O   O3        1.0  0.8539133697777288  0.7661228415818186  0.9543266213004244  1.0000
  O   O4        1.0  0.3268162378553825  0.4892411631917639  0.40063303106217063  1.0000
  O   O5        1.0  0.7169899677523972  0.2522736656874258  0.8402141984806804  1.0000
  O   O6        1.0  0.9736159119820513  0.8343311286589596  0.6421416888915701  1.0000
  O   O7        1.0  0.2556405231152894  0.22874958836473525  0.4664040206989739  1.0000
  O   O8        1.0  0.07399402472276506  0.9739445986524515  0.012958379825704469  1.0000
  O   O9        1.0  0.7181124276066839  0.6114637779537588  0.07761530958669027  1.0000
  O   O10       1.0  0.2632696043292526  0.33301145414588973  0.7236098895373289  1.0000
data_image9
_chemical_formula_structural       Sr2Cu2H12O10
_chemical_formula_sum              "Sr2 Cu2 H12 O10"
_cell_length_a       6.296725
_cell_length_b       5.467378000000002
_cell_length_c       7.977295878227032
_cell_angle_alpha    72.20561901156641
_cell_angle_beta     90.0
_cell_angle_gamma    90.0

_space_group_name_H-M_alt    "P 1"
_space_group_IT_number       1

loop_
  _space_group_symop_operation_xyz
  'x, y, z'

loop_
  _atom_site_type_symbol
  _atom_site_label
  _atom_site_symmetry_multiplicity
  _atom_site_fract_x
  _atom_site_fract_y
  _atom_site_fract_z
  _atom_site_occupancy
  Sr  Sr1       1.0  0.6741442331040162  0.8670850950002205  0.4091140175005421  1.0000
  Sr  Sr2       1.0  0.7812896995455958  0.7819763810839504  0.265430080529768  1.0000
  Cu  Cu1       1.0  0.028310585534200072  0.8930679931072518  0.37000909709604457  1.0000
  Cu  Cu2       1.0  0.9405581476530642  0.9716811462130863  0.6083752279519103  1.0000
  H   H1        1.0  0.04181051092064081  0.38254944351501763  0.35918052811030066  1.0000
  H   H2        1.0  0.6031987543392461  0.8467933086358244  0.4459458368583  1.0000
  H   H3        1.0  0.6268295379995834  0.29331771977012977  0.7571623294206802  1.0000
  H   H4        1.0  0.9943381268531084  0.3226576140150428  0.3262363965623081  1.0000
  H   H5        1.0  0.8785858717747033  0.05664485279703513  0.5524616880575195  1.0000
  H   H6        1.0  0.2929745734545577  0.12052338099601911  0.30410414369453065  1.0000
  H   H7        1.0  0.6201042408101785  0.42869912675814703  0.7088575571833644  1.0000
  H   H8        1.0  0.9264189378300216  0.9222112131101312  0.8510832433166797  1.0000
  H   H9        1.0  0.6995633714118412  0.13085142973432085  0.3559023679699749  1.0000
  H   H10       1.0  0.15450998782762326  0.06254889235788141  0.9212819354579551  1.0000
  H   H11       1.0  0.23147365712793544  0.8984108204604127  0.05181235179770738  1.0000
  H   H12       1.0  0.9495674370264169  0.03702931257430464  0.9367240053688874  1.0000
  O   O1        1.0  0.039946019714989234  0.6281180327641778  0.9163725145699573  1.0000
  O   O2        1.0  0.4317351956779021  0.20172022807673784  0.5555251956211578  1.0000
  O   O3        1.0  0.9061332083801972  0.8441783863599994  0.607175681150693  1.0000
  O   O4        1.0  0.40313250992039684  0.7160812754009385  0.31680257059269934  1.0000
  O   O5        1.0  0.3352486944963857  0.4896357089010053  0.6832587461467483  1.0000
  O   O6        1.0  0.4732094840564969  0.4911338433303172  0.628915175635484  1.0000
  O   O7        1.0  0.5036710365238832  0.6890714431647211  0.1566494697908638  1.0000
  O   O8        1.0  0.302767221473232  0.6051144273615137  0.32064191795052466  1.0000
  O   O9        1.0  0.19056433800869854  0.8497707893257029  0.6511230465475819  1.0000
  O   O10       1.0  0.013501393812475726  0.8910988222341985  0.1460256891004974  1.0000
data_image10
_chemical_formula_structural       Sr2Cu2H12O10
_chemical_formula_sum              "Sr2 Cu2 H12 O10"
_cell_length_a       6.296725
_cell_length_b       5.467378000000002
_cell_length_c       7.977295878227032
_cell_angle_alpha    72.20561901156641
_cell_angle_beta     90.0
_cell_angle_gamma    90.0

_space_group_name_H-M_alt    "P 1"
_space_group_IT_number       1

loop_
  _space_group_symop_operation_xyz
  'x, y, z'

loop_
  _atom_site_type_symbol
  _atom_site_label
  _atom_site_symmetry_multiplicity
  _atom_site_fract_x
  _atom_site_fract_y
  _atom_site_fract_z
  _atom_site_occupancy
  Sr  Sr1       1.0  0.6355696185783017  0.5963248941698112  0.9923548088117968  1.0000
  Sr  Sr2       1.0  0.7132172244309913  0.3368649899493903  0.4512854170752689  1.0000
  Cu  Cu1       1.0  0.8275432175723836  0.20718144194688648  0.8532243758090772  1.0000
  Cu  Cu2       1.0  0.3026038843781862  0.03103122051106766  0.15266056536347605  1.0000
  H   H1        1.0  0.7232993793440983  0.8829486411996186  0.5113667577097658  1.0000
  H   H2        1.0  0.8288867455703439  0.0760353528894484  0.9320153870758077  1.0000
  H   H3        1.0  0.1386717873683665  0.8202306955936365  0.7179671363555826  1.0000
  H   H4        1.0  0.4727166621014476  0.2231947761029005  0.704816625919193  1.0000
  H   H5        1.0  0.3950104773393832  0.4716230306075886  0.4660587694379501  1.0000
  H   H6        1.0  0.0651776023732964  0.6270838700256718  0.7328550762795203  1.0000
  H   H7        1.0  0.7637864254902524  0.47517151531064883  0.6414521279220935  1.0000
  H   H8        1.0  0.0816395924630342  0.2917413874529302  0.06617355567141203  1.0000
  H   H9        1.0  0.1971282624002697  0.02116293949802639  0.5005126681353431  1.0000
  H   H10       1.0  0.7641078033630038  0.6862600477625165  0.9595311980956467  1.0000
  H   H11       1.0  0.5588677680934779  0.7475613574497402  0.9017317126272246  1.0000
  H   H12       1.0  0.3946800230478402  0.20432524479110725  0.005418658663984388  1.0000
  O   O1        1.0  0.1914431078985217  0.24541666542063467  0.49942214509792393  1.0000
  O   O2        1.0  0.6401094035536516  0.10771869616655749  0.35223471165409137  1.0000
  O   O3        1.0  0.92349251214182  0.07594974339735927  0.6335847205773462  1.0000
  O   O4        1.0  0.5566547083690239  0.6567868062993512  0.06450693601800594  1.0000
  O   O5        1.0  0.6423218429254121  0.35488129533860047  0.602324063762353  1.0000
  O   O6        1.0  0.5795538753500296  0.06783644770621322  0.2873073469672818  1.0000
  O   O7        1.0  0.3986040195886744  0.7005763354245573  0.9353375884675188  1.0000
  O   O8        1.0  0.09887270965828066  0.4291687632103276  0.1523241609992283  1.0000
  O   O9        1.0  0.28669392689334927  0.6696758459147532  0.2523241118469741  1.0000
  O   O10       1.0  0.21875183781958185  0.9002805953787174  0.5141979766776785  1.0000
data_image11
_chemical_formula_structural       Sr2Cu2H12O10
_chemical_formula_sum              "Sr2 Cu2 H12 O10"
_cell_length_a       6.296725
_cell_length_b       5.467378000000002
_cell_length_c       7.977295878227032
_cell_angle_alpha    72.20561901156641
_cell_angle_beta     90.0
_cell_angle_gamma    90.0

_space_group_name_H-M_alt    "P 1"
_space_group_IT_number       1

loop_
  _space_group_symop_operation_xyz
  'x, y, z'

loop_
  _atom_site_type_symbol
  _atom_site_label
  _atom_site_symmetry_multiplicity
  _atom_site_fract_x
  _atom_site_fract_y
  _atom_site_fract_z
  _atom_site_occupancy
  Sr  Sr1       1.0  0.5357890671293717  0.8629162122088019  0.7518784290587064  1.0000
  Sr  Sr2       1.0  0.4090154865698423  0.3187176452483982  0.5037355575477704  1.0000
  Cu  Cu1       1.0  0.28816299347090535  0.6158809828339145  0.34049902245169505  1.0000
  Cu  Cu2       1.0  0.43136448798577476  0.8140090392553248  0.45121390785789117  1.0000
  H   H1        1.0  0.1626559956384881  0.41918788256589323  0.6958913207054138  1.0000
  H   H2        1.0  0.6023749801388476  0.595683505263878  0.18951043442939408  1.0000
  H   H3        1.0  0.3973276679753326  0.20205696526682004  0.9098344130907208  1.0000
  H   H4        1.0  0.6641008486039937  0.1288902536034584  0.6950194463133812  1.0000
  H   H5        1.0  0.6977252655779012  0.21146372726070695  0.5894037713296711  1.0000
  H   H6        1.0  0.12078845000723959  0.41006650940471445  0.6220727526815608  1.0000
  H   H7        1.0  0.7297429765530978  0.45858080170000903  0.21028524314169772  1.0000
  H   H8        1.0  0.16590760020335438  0.4517543982947245  0.8471954028864275  1.0000
  H   H9        1.0  0.2834860564294104  0.4929843381323735  0.02095651684794575  1.0000
  H   H10       1.0  0.9802041306393221  0.741248594429635  0.12400628610339481  1.0000
  H   H11       1.0  0.05696733313379809  0.36201471294043586  0.1509913664776832  1.0000
  H   H12       1.0  0.8175093414902221  0.3927443407883402  0.8506956420606002  1.0000
  O   O1        1.0  0.9856950483736  0.17436622336390428  0.7383753464309848  1.0000
  O   O2        1.0  0.4013797313673422  0.9756975256896112  0.8669356737755152  1.0000
  O   O3        1.0  0.7896809635130921  0.006596143764909357  0.1425098798936233  1.0000
  O   O4        1.0  0.41454184418398654  0.23182183563767467  0.27879741052220197  1.0000
  O   O5        1.0  0.8194258148469089  0.049579899557670615  0.2501435658577975  1.0000
  O   O6        1.0  0.7993454876213946  0.7211670567048714  0.15764361157926032  1.0000
  O   O7        1.0  0.3284510501252953  0.35266632051207125  0.5140764001844218  1.0000
  O   O8        1.0  0.6033781493997594  0.32919393895281246  0.8671305894181387  1.0000
  O   O9        1.0  0.017792482693039346  0.8420893990551122  0.5707548320424394  1.0000
  O   O10       1.0  0.23772680922411382  0.6624939087923849  0.11082046380033717  1.0000
data_image12
_chemical_formula_structural       Sr2Cu2H12O10
_chemical_formula_sum              "Sr2 Cu2 H12 O10"
_cell_length_a       6.296725
_cell_length_b       5.467378000000002
_cell_length_c       7.977295878227032
_cell_angle_alpha    72.20561901156641
_cell_angle_beta     90.0
_cell_angle_gamma    90.0

_space_group_name_H-M_alt    "P 1"
_space_group_IT_number       1

loop_
  _space_group_symop_operation_xyz
  'x, y, z'

loop_
  _atom_site_type_symbol
  _atom_site_label
  _atom_site_symmetry_multiplicity
  _atom_site_fract_x
  _atom_site_fract_y
  _atom_site_fract_z
  _atom_site_occupancy
  Sr  Sr1       1.0  0.02659922745078802  0.016418143641203642  0.5738801629340742  1.0000
  Sr  Sr2       1.0  0.45367155366693623  0.009381557232700288  0.11370374617399648  1.0000
  Cu  Cu1       1.0  0.8779513103945646  0.3241587111260742  0.3577143183792941  1.0000
  Cu  Cu2       1.0  0.8589841136872565  0.9729586996254511  0.6267487448058091  1.0000
  H   H1        1.0  0.9224815796987968  0.6565925502800383  0.6968153736816021  1.0000
  H   H2        1.0  0.3746767397969961  0.918160863162484  0.6868330054421676  1.0000
  H   H3        1.0  0.15316109282139223  0.8885530261322856  0.35712241870351136  1.0000
  H   H4        1.0  0.5440406482666731  0.8157905312255025  0.7921817498281598  1.0000
  H   H5        1.0  0.05616567574907094  0.7591458990063984  0.20724355388665572  1.0000
  H   H6        1.0  0.029462943286489462  0.9996849972048949  0.3160708986870304  1.0000
  H   H7        1.0  0.7774449462194752  0.6443450678925728  0.41447732897358947  1.0000
  H   H8        1.0  0.4844006966595771  0.6920871151669417  0.08991774180321954  1.0000
  H   H9        1.0  0.2935121737600639  0.517721089621773  0.44387980093597434  1.0000
  H   H10       1.0  0.3172415432636626  0.9883634682919364  0.7926903182378737  1.0000
  H   H11       1.0  0.7912795627489686  0.4321819278993644  0.957412775256671  1.0000
  H   H12       1.0  0.6882030919950921  0.8601669718118501  0.486167250899598  1.0000
  O   O1        1.0  0.2043813715063152  0.9652776423899923  0.12719968027522555  1.0000
  O   O2        1.0  0.624318718968425  0.7761753440718167  0.9414648334677622  1.0000
  O   O3        1.0  0.3920721527392743  0.28801720282353926  0.2758525642202585  1.0000
  O   O4        1.0  0.1285473629632179  0.13581703707313864  0.9916632876447693  1.0000
  O   O5        1.0  0.20730635989912116  0.544157072435496  0.95894678708828  1.0000
  O   O6        1.0  0.7595807783973214  0.9763110950298142  0.35705925096408464  1.0000
  O   O7        1.0  0.36658027779776603  0.25202278047800064  0.1079806224006461  1.0000
  O   O8        1.0  0.32073094334737107  0.940029012177547  0.13996789591328707  1.0000
  O   O9        1.0  0.6909019858721877  0.12124323955504224  0.26758858539687935  1.0000
  O   O10       1.0  0.40437746471434366  0.8767833349265857  0.2956688955309801  1.0000
data_image13
_chemical_formula_structural       Sr2Cu2H12O10
_chemical_formula_sum              "Sr2 Cu2 H12 O10"
_cell_length_a       6.296725
_cell_length_b       5.467378000000002
_cell_length_c       7.977295878227032
_cell_angle_alpha    72.20561901156641
_cell_angle_beta     90.0
_cell_angle_gamma    90.0

_space_group_name_H-M_alt    "P 1"
_space_group_IT_number       1

loop_
  _space_group_symop_operation_xyz
  'x, y, z'

loop_
  _atom_site_type_symbol
  _atom_site_label
  _atom_site_symmetry_multiplicity
  _atom_site_fract_x
  _atom_site_fract_y
  _atom_site_fract_z
  _atom_site_occupancy
  Sr  Sr1       1.0  0.6919986903376412  0.8857223020750098  0.9650660815241281  1.0000
  Sr  Sr2       1.0  0.3666409308789298  0.8284800245892256  0.8401011326350272  1.0000
  Cu  Cu1       1.0  0.1272547468834091  0.27296866418328136  0.94577132264385  1.0000
  Cu  Cu2       1.0  0.5350839277707564  0.2711121697211638  0.3724962137930561  1.0000
  H   H1        1.0  0.10840681607078295  0.6389551799511537  0.8650308734504506  1.0000
  H   H2        1.0  0.008878726832335815  0.37518616754096  0.27987146310624667  1.0000
  H   H3        1.0  0.8017968693311559  0.5849068238749169  0.10482740806764923  1.0000
  H   H4        1.0  0.031574896071106195  0.2992568528279662  0.13814291032031178  1.0000
  H   H5        1.0  0.7115795572171919  0.9395557298557833  0.938277876295615  1.0000
  H   H6        1.0  0.19200151341647143  0.5629925917914989  0.4040494143991964  1.0000
  H   H7        1.0  0.15930884683621116  0.42937716750020627  0.32288161289761774  1.0000
  H   H8        1.0  0.13373120850155829  0.01617050809727516  0.35400710859539686  1.0000
  H   H9        1.0  0.05686930338652019  0.13141505032763234  0.490361648160615  1.0000
  H   H10       1.0  0.7554559456766583  0.21436039892432746  0.9659187602956081  1.0000
  H   H11       1.0  0.17012676689773798  0.423403152206447  0.6898063005646691  1.0000
  H   H12       1.0  0.3084408518334385  0.5705502105556661  0.030136493762256578  1.0000
  O   O1        1.0  0.12041307646722998  0.5495202359743416  0.32891217833093833  1.0000
  O   O2        1.0  0.8573211882830947  0.37412144248446566  0.026207130647890153  1.0000
  O   O3        1.0  0.46250018531281967  0.335435188622796  0.8047252784745069  1.0000
  O   O4        1.0  0.8028441239503081  0.7595144883525791  0.37811555402731756  1.0000
  O   O5        1.0  0.9434566745221673  0.6770932650252917  0.6631780715852074  1.0000
  O   O6        1.0  0.34098550690032425  0.9069574334134813  0.6688065699418075  1.0000
  O   O7        1.0  0.045391251012915745  0.006395278265699744  0.32570646319072694  1.0000
  O   O8        1.0  0.19734817260541604  0.4384843782027019  0.01707065278696973  1.0000
  O   O9        1.0  0.36786135169677436  0.004380749101983383  0.22524892816727515  1.0000
  O   O10       1.0  0.5957186758314492  0.5433220832055667  0.8822386111714877  1.0000
data_image14
_chemical_formula_structural       Sr2Cu2H12O10
_chemical_formula_sum              "Sr2 Cu2 H12 O10"
_cell_length_a       6.296725
_cell_length_b       5.467378000000002
_cell_length_c       7.977295878227032
_cell_angle_alpha    72.20561901156641
_cell_angle_beta     90.0
_cell_angle_gamma    90.0

_space_group_name_H-M_alt    "P 1"
_space_group_IT_number       1

loop_
  _space_group_symop_operation_xyz
  'x, y, z'

loop_
  _atom_site_type_symbol
  _atom_site_label
  _atom_site_symmetry_multiplicity
  _atom_site_fract_x
  _atom_site_fract_y
  _atom_site_fract_z
  _atom_site_occupancy
  Sr  Sr1       1.0  0.6854266611626372  0.09762492991285399  0.5070027075125836  1.0000
  Sr  Sr2       1.0  0.4041766369191464  0.7800236493349075  0.014844237826764584  1.0000
  Cu  Cu1       1.0  0.20447067701024935  0.5599677556892857  0.10344538447679952  1.0000
  Cu  Cu2       1.0  0.45860385470405163  0.6759441625035834  0.024996185878990218  1.0000
  H   H1        1.0  0.27922012167982757  0.5536767225712538  0.10728651730460115  1.0000
  H   H2        1.0  0.4558395823696628  0.7040082544554025  0.8765034900425235  1.0000
  H   H3        1.0  0.6097663209220627  0.38117350661195815  0.7362863833841402  1.0000
  H   H4        1.0  0.45470386929810047  0.4469191264361143  0.4074182100594044  1.0000
  H   H5        1.0  0.1289108653436415  0.3616909327101894  0.415721382945776  1.0000
  H   H6        1.0  0.09889832638873486  0.3606642704958176  0.9337416832931922  1.0000
  H   H7        1.0  0.8978055032785051  0.9307411516201682  0.6297094959882088  1.0000
  H   H8        1.0  0.1562722498565563  0.6240345580008579  0.4848584009305341  1.0000
  H   H9        1.0  0.9333493571448344  0.9959364155874937  0.5811527168698376  1.0000
  H   H10       1.0  0.49734100431669503  0.4672939998217771  0.8463361305039143  1.0000
  H   H11       1.0  0.4328011537436396  0.7130052903667092  0.8583299381425604  1.0000
  H   H12       1.0  0.8789201372710522  0.368560683040414  0.9317756571108475  1.0000
  O   O1        1.0  0.5945519764427445  0.6302894220862072  0.8038649479203741  1.0000
  O   O2        1.0  0.07694202031416353  0.25530004992288013  0.6530468150103843  1.0000
  O   O3        1.0  0.7716571299097268  0.7996828766918043  0.06819131965312408  1.0000
  O   O4        1.0  0.7004486392434046  0.7314352928806329  0.2955244181312082  1.0000
  O   O5        1.0  0.6761468300833258  0.26766661349722654  0.19844638891299837  1.0000
  O   O6        1.0  0.7451042086868256  0.26554096007021144  0.26872916825232096  1.0000
  O   O7        1.0  0.7470704163424671  0.4557851373683661  0.6659024399414193  1.0000
  O   O8        1.0  0.16689397065601952  0.019776733082835563  0.8773259372874236  1.0000
  O   O9        1.0  0.9666999579058029  0.17580938382889144  0.5311552766579553  1.0000
  O   O10       1.0  0.7323061739007244  0.8710186427488225  0.1647910056344699  1.0000
data_image15
_chemical_formula_structural       Sr2Cu2H12O10
_chemical_formula_sum              "Sr2 Cu2 H12 O10"
_cell_length_a       6.296725
_cell_length_b       5.467378000000002
_cell_length_c       7.977295878227032
_cell_angle_alpha    72.20561901156641
_cell_angle_beta     90.0
_cell_angle_gamma    90.0

_space_group_name_H-M_alt    "P 1"
_space_group_IT_number       1

loop_
  _space_group_symop_operation_xyz
  'x, y, z'

loop_
  _atom_site_type_symbol
  _atom_site_label
  _atom_site_symmetry_multiplicity
  _atom_site_fract_x
  _atom_site_fract_y
  _atom_site_fract_z
  _atom_site_occupancy
  Sr  Sr1       1.0  0.2070247397350613  0.3704143693903461  0.08343525542295538  1.0000
  Sr  Sr2       1.0  0.32531826238846406  0.9083344757091254  0.7297092086519115  1.0000
  Cu  Cu1       1.0  0.29991117015015334  0.21268649643752724  0.9955722919548862  1.0000
  Cu  Cu2       1.0  0.2720768758936174  0.9260106511355843  0.3048320543312002  1.0000
  H   H1        1.0  0.5888938382267952  0.24943411943968385  0.48411149716412183  1.0000
  H   H2        1.0  0.34550273724016733  0.4676355868577957  0.27431440773943905  1.0000
  H   H3        1.0  0.5995551868836628  0.6372975182603113  0.38788052258314565  1.0000
  H   H4        1.0  0.7109176048543304  0.6917421584948897  0.5432101441547275  1.0000
  H   H5        1.0  0.5976620312430896  0.1975304993102327  0.12795919697964564  1.0000
  H   H6        1.0  0.4623794455474126  0.8202461138719173  0.046422261380939744  1.0000
  H   H7        1.0  0.41258265520446  0.34778049180749804  0.6285324395576026  1.0000
  H   H8        1.0  0.9669818581751315  0.8085740406531841  0.17760640916094417  1.0000
  H   H9        1.0  0.10452900587370095  0.29893951067788294  0.48418158663844224  1.0000
  H   H10       1.0  0.00790149366366677  0.9876422801335139  0.31122852201224305  1.0000
  H   H11       1.0  0.6073706720490009  0.7000330638838932  0.08473182236775756  1.0000
  H   H12       1.0  0.17678159952629358  0.038503672581100545  0.682823581417324  1.0000
  O   O1        1.0  0.7078808362639393  0.408173512929352  0.5356382547761314  1.0000
  O   O2        1.0  0.011431033941335045  0.0506202787055372  0.16294142341212137  1.0000
  O   O3        1.0  0.8586570417974144  0.8262808943545679  0.7744109800478327  1.0000
  O   O4        1.0  0.43193856573998346  0.3498438012902625  0.004282084624719573  1.0000
  O   O5        1.0  0.5917264575473382  0.6400205867084878  0.4538935835844313  1.0000
  O   O6        1.0  0.909878650565588  0.15619876404525712  0.11508104016684229  1.0000
  O   O7        1.0  0.9280945311766118  0.1996929249726236  0.995178201716044  1.0000
  O   O8        1.0  0.07292201601740089  0.30277059022773756  0.9598770501324907  1.0000
  O   O9        1.0  0.09702185689820908  0.34985066804802045  0.23082270254235482  1.0000
  O   O10       1.0  0.12130933732260019  0.4785666113602929  0.8254140927747358  1.0000
data_image16
_chemical_formula_structural       Sr2Cu2H12O10
_chemical_formula_sum              "Sr2 Cu2 H12 O10"
_cell_length_a       6.296725
_cell_length_b       5.467378000000002
_cell_length_c       7.977295878227032
_cell_angle_alpha    72.20561901156641
_cell_angle_beta     90.0
_cell_angle_gamma    90.0

_space_group_name_H-M_alt    "P 1"
_space_group_IT_number       1

loop_
  _space_group_symop_operation_xyz
  'x, y, z'

loop_
  _atom_site_type_symbol
  _atom_site_label
  _atom_site_symmetry_multiplicity
  _atom_site_fract_x
  _atom_site_fract_y
  _atom_site_fract_z
  _atom_site_occupancy
  Sr  Sr1       1.0  0.8151394298765808  0.21212036118959077  0.6111423088586889  1.0000
  Sr  Sr2       1.0  0.6985175743466243  0.5541489982279018  0.47824765142286196  1.0000
  Cu  Cu1       1.0  0.308064499986358  0.861566076753661  0.0006633175071328878  1.0000
  Cu  Cu2       1.0  0.19866656104753133  0.2699980177276302  0.27000672317808494  1.0000
  H   H1        1.0  0.8565757974574808  0.3971085480879992  0.5375311591633363  1.0000
  H   H2        1.0  0.981023909538635  0.6884140201145783  0.6917968058696715  1.0000
  H   H3        1.0  0.5336786557454616  0.02467272011563182  0.9863528988789767  1.0000
  H   H4        1.0  0.24428111733868718  0.5828792368993163  0.6076503484509885  1.0000
  H   H5        1.0  0.9203735555638559  0.4622332439466845  0.9016069088829681  1.0000
  H   H6        1.0  0.15063997227116488  0.5371375498652924  0.5143712829449214  1.0000
  H   H7        1.0  0.08190823852783069  0.14976235324866138  0.22439224465051666  1.0000
  H   H8        1.0  0.593770868392312  0.31820223721661023  0.8493368751805974  1.0000
  H   H9        1.0  0.3503409869608731  0.6871338794226176  0.7783054527753848  1.0000
  H   H10       1.0  0.7271843913331395  0.19271415716139018  0.8959635270512081  1.0000
  H   H11       1.0  0.7879062360152602  0.7521122409962118  0.432112300186418  1.0000
  H   H12       1.0  0.2532620270503685  0.4285444788511086  0.04792568212724291  1.0000
  O   O1        1.0  0.43324600174673833  0.9330852504936047  0.6549000708473613  1.0000
  O   O2        1.0  0.28742013408918865  0.14487511940114928  0.9253907361289748  1.0000
  O   O3        1.0  0.5558967838005628  0.8170821028252249  0.3621089384687366  1.0000
  O   O4        1.0  0.7585668334504589  0.826285713003017  0.2558494569675531  1.0000
  O   O5        1.0  0.8493260482719052  0.49075343464028265  0.7331121699353389  1.0000
  O   O6        1.0  0.5553193405339698  0.8212470225116704  0.22485597427294124  1.0000
  O   O7        1.0  0.6775269443460274  0.8271908659953624  0.8319816524890484  1.0000
  O   O8        1.0  0.0007982793467817828  0.5781252265805961  0.4577005021601508  1.0000
  O   O9        1.0  0.10690399439044995  0.22122358292108402  0.5096253197116312  1.0000
  O   O10       1.0  0.7081843659252627  0.4013222776411567  0.36363346182042733  1.0000
data_image17
_chemical_formula_structural       Sr2Cu2H12O10
_chemical_formula_sum              "Sr2 Cu2 H12 O10"
_cell_length_a       6.296725
_cell_length_b       5.467378000000002
_cell_length_c       7.977295878227032
_cell_angle_alpha    72.20561901156641
_cell_angle_beta     90.0
_cell_angle_gamma    90.0

_space_group_name_H-M_alt    "P 1"
_space_group_IT_number       1

loop_
  _space_group_symop_operation_xyz
  'x, y, z'

loop_
  _atom_site_type_symbol
  _atom_site_label
  _atom_site_symmetry_multiplicity
  _atom_site_fract_x
  _atom_site_fract_y
  _atom_site_fract_z
  _atom_site_occupancy
  Sr  Sr1       1.0  0.5668042907200288  0.3637035629071761  0.0060284122882876545  1.0000
  Sr  Sr2       1.0  0.9056952706887387  0.04576065775472671  0.2579509387142025  1.0000
  Cu  Cu1       1.0  0.8253403119160794  0.7622456995304674  0.5680969788809307  1.0000
  Cu  Cu2       1.0  0.6264383145553438  0.09312964946730062  0.4626379336696118  1.0000
  H   H1        1.0  0.006897845683852211  0.8367887082276866  0.6351225479738787  1.0000
  H   H2        1.0  0.3903048747451976  0.9210044004721567  0.19079967979268986  1.0000
  H   H3        1.0  0.8378018697258085  0.8753802059218287  0.29648173740133643  1.0000
  H   H4        1.0  0.543813495663926  0.6959045846015215  0.7271341886371374  1.0000
  H   H5        1.0  0.73454149288591  0.6519378296798095  0.7353542498894967  1.0000
  H   H6        1.0  0.2084935103339376  0.7882448069722159  0.5604357205011183  1.0000
  H   H7        1.0  0.9944118129787967  0.37856726528843865  0.21900288717006333  1.0000
  H   H8        1.0  0.17294655051045993  0.115844179137639  0.16415095346746966  1.0000
  H   H9        1.0  0.7578330948927032  0.2888810461263347  0.8957749553665053  1.0000
  H   H10       1.0  0.09258588362718001  0.5291440024602707  0.5052847746337648  1.0000
  H   H11       1.0  0.7094618995324709  0.8868201882578433  0.559380272810813  1.0000
  H   H12       1.0  0.48059409903362393  0.599868492114183  0.211618825327605  1.0000
  O   O1        1.0  0.020657317305449396  0.6936350837931968  0.6476199189928593  1.0000
  O   O2        1.0  0.04865995205909712  0.5830880337916824  0.09340351817400006  1.0000
  O   O3        1.0  0.25690681709966157  0.7046782431716565  0.6918595882234513  1.0000
  O   O4        1.0  0.5773503010859713  0.44482268433785066  0.25936978636309505  1.0000
  O   O5        1.0  0.22885224411948002  0.18779416248071357  0.8661717032846354  1.0000
  O   O6        1.0  0.9371598421130329  0.1265783674607519  0.8812269490445033  1.0000
  O   O7        1.0  0.032007983594667166  0.18912314646877348  0.0738946053024847  1.0000
  O   O8        1.0  0.7358096596217365  0.8871678539435379  0.5044758343428839  1.0000
  O   O9        1.0  0.06763671778026037  0.6319129258336034  0.9433399694171385  1.0000
  O   O10       1.0  0.5522100849193521  0.32469187208334915  0.2796759039920289  1.0000
data_image18
_chemical_formula_structural       Sr2Cu2H12O10
_chemical_formula_sum              "Sr2 Cu2 H12 O10"
_cell_length_a       6.296725
_cell_length_b       5.467378000000002
_cell_length_c       7.977295878227032
_cell_angle_alpha    72.20561901156641
_cell_angle_beta     90.0
_cell_angle_gamma    90.0

_space_group_name_H-M_alt    "P 1"
_space_group_IT_number       1

loop_
  _space_group_symop_operation_xyz
  'x, y, z'

loop_
  _atom_site_type_symbol
  _atom_site_label
  _atom_site_symmetry_multiplicity
  _atom_site_fract_x
  _atom_site_fract_y
  _atom_site_fract_z
  _atom_site_occupancy
  Sr  Sr1       1.0  0.5606944036553614  0.51627272850601  0.20872208624496125  1.0000
  Sr  Sr2       1.0  0.4617992317653261  0.08436672016978264  0.39050627168035135  1.0000
  Cu  Cu1       1.0  0.6876331127423327  0.060081564355641603  0.7507835821597837  1.0000
  Cu  Cu2       1.0  0.4412068245364935  0.6011517633451149  0.024830599257256836  1.0000
  H   H1        1.0  0.971678240573965  0.6749194613657892  0.7534028590598609  1.0000
  H   H2        1.0  0.5197371495232801  0.18340386147610843  0.8493920136691031  1.0000
  H   H3        1.0  0.7970063952961937  0.6259707196149975  0.5705128025729209  1.0000
  H   H4        1.0  0.056320782052353024  0.2544896174222231  0.787119803018868  1.0000
  H   H5        1.0  0.7858045528410003  0.5901595551986247  0.08813722303602844  1.0000
  H   H6        1.0  0.7471324004218332  0.3666058830131078  0.3092564172693528  1.0000
  H   H7        1.0  0.930315510253422  0.5391487035958562  0.8729843850887846  1.0000
  H   H8        1.0  0.2646897318572883  0.7830600928573404  0.9821637403219938  1.0000
  H   H9        1.0  0.2818859649269143  0.3296410313414526  0.6179834129070514  1.0000
  H   H10       1.0  0.8808749771051225  0.604883269086713  0.5485888351686299  1.0000
  H   H11       1.0  0.4104264316847548  0.5143686652882025  0.2211955580933136  1.0000
  H   H12       1.0  0.32039150936179794  0.4531853342996328  0.32284209661884233  1.0000
  O   O1        1.0  0.8094591464614496  0.9613756126491353  0.32404593704268336  1.0000
  O   O2        1.0  0.1033731402567355  0.6606552849152649  0.2667530814762813  1.0000
  O   O3        1.0  0.7195939008815913  0.8554699467349565  0.539629305312701  1.0000
  O   O4        1.0  0.9166023316793144  0.9051381719182245  0.5767571835895069  1.0000
  O   O5        1.0  0.7811533159292594  0.5229182504626806  0.04266198619370698  1.0000
  O   O6        1.0  0.8508095784200123  0.2721400450391229  0.8296777510186075  1.0000
  O   O7        1.0  0.3605184995394666  0.894557784544304  0.9599861794849858  1.0000
  O   O8        1.0  0.4880364380442188  0.9348302701109787  0.2880749986616138  1.0000
  O   O9        1.0  0.8456460025190609  0.019870704622007906  0.6455748530643177  1.0000
  O   O10       1.0  0.8993174996139714  0.08019396783492994  0.1267819076019805  1.0000
data_image19
_chemical_formula_structural       Sr2Cu2H12O10
_chemical_formula_sum              "Sr2 Cu2 H12 O10"
_cell_length_a       6.296725
_cell_length_b       5.467378000000002
_cell_length_c       7.977295878227032
_cell_angle_alpha    72.20561901156641
_cell_angle_beta     90.0
_cell_angle_gamma    90.0

_space_group_name_H-M_alt    "P 1"
_space_group_IT_number       1

loop_
  _space_group_symop_operation_xyz
  'x, y, z'

loop_
  _atom_site_type_symbol
  _atom_site_label
  _atom_site_symmetry_multiplicity
  _atom_site_fract_x
  _atom_site_fract_y
  _atom_site_fract_z
  _atom_site_occupancy
  Sr  Sr1       1.0  0.7154864962649299  0.36569654557388276  0.8577764741057763  1.0000
  Sr  Sr2       1.0  0.8955561699112877  0.45109823415987194  0.09930011117830873  1.0000
  Cu  Cu1       1.0  0.5841884588298853  0.2748488242505118  0.5599715668940917  1.0000
  Cu  Cu2       1.0  0.19896293615965988  0.5533931730606128  0.9543851126218215  1.0000
  H   H1        1.0  0.5485332256066613  0.995612041791901  0.015196444306639023  1.0000
  H   H2        1.0  0.8553178250440396  0.027403760061133653  0.8745125708301202  1.0000
  H   H3        1.0  0.27101674873847514  0.30764500703662634  0.8925465628271922  1.0000
  H   H4        1.0  0.7169006718322635  0.20976617792621255  0.633320236694999  1.0000
  H   H5        1.0  0.5253574187518097  0.29956870526075363  0.27285210066474974  1.0000
  H   H6        1.0  0.5266281248841551  0.4925201007645228  0.0018457432161085308  1.0000
  H   H7        1.0  0.6032826114678755  0.06909063013154082  0.0413104442122858  1.0000
  H   H8        1.0  0.03563799976473092  0.7374551475165845  0.39243790751788765  1.0000
  H   H9        1.0  0.811324415015406  0.404600920224766  0.5519403103244258  1.0000
  H   H10       1.0  0.11363544283085503  0.5870744949788786  0.5099160269601271  1.0000
  H   H11       1.0  0.350198810454458  0.4506069452036172  0.1366735826668446  1.0000
  H   H12       1.0  0.6050082228612155  0.9111391794285737  0.5258383578620851  1.0000
  O   O1        1.0  0.02841086137050297  0.7060829649853986  0.7810570693691261  1.0000
  O   O2        1.0  0.6452877351257484  0.26812773040728644  0.19023296054729144  1.0000
  O   O3        1.0  0.35790076841658447  0.6674747181677958  0.9169043102883734  1.0000
  O   O4        1.0  0.6579690440557897  0.6183835918782279  0.42124336230335757  1.0000
  O   O5        1.0  0.48850796446640743  0.21667558424087474  0.06170311382084037  1.0000
  O   O6        1.0  0.12594581802841276  0.5015797420637682  0.7359939268571907  1.0000
  O   O7        1.0  0.7994728379417211  0.050200010649859905  0.03249001520453021  1.0000
  O   O8        1.0  0.5719723870315647  0.26363995623978553  0.8323864648773451  1.0000
  O   O9        1.0  0.8868613203376299  0.00906272922293283  0.3240078565941076  1.0000
  O   O10       1.0  0.3208535183221102  0.7672117647598498  0.4037833280162886  1.0000
data_image20
_chemical_formula_structural       Sr2Cu2H12O10
_chemical_formula_sum              "Sr2 Cu2 H12 O10"
_cell_length_a       6.296725
_cell_length_b       5.467378000000002
_cell_length_c       7.977295878227032
_cell_angle_alpha    72.20561901156641
_cell_angle_beta     90.0
_cell_angle_gamma    90.0

_space_group_name_H-M_alt    "P 1"
_space_group_IT_number       1

loop_
  _space_group_symop_operation_xyz
  'x, y, z'

loop_
  _atom_site_type_symbol
  _atom_site_label
  _atom_site_symmetry_multiplicity
  _atom_site_fract_x
  _atom_site_fract_y
  _atom_site_fract_z
  _atom_site_occupancy
  Sr  Sr1       1.0  0.11894173179462086  0.7956927807827014  0.590455160199781  1.0000
  Sr  Sr2       1.0  0.6812937264912762  0.24991784419398755  0.4886605136562139  1.0000
  Cu  Cu1       1.0  0.45128135645063594  0.060964458622038364  0.27831356518436223  1.0000
  Cu  Cu2       1.0  0.042686100638093194  0.5606014327204321  0.4989352533011697  1.0000
  H   H1        1.0  0.23623158421833068  0.20901730103651062  0.6941682933393167  1.0000
  H   H2        1.0  0.3548460282909218  0.4134858759935014  0.5436578516273585  1.0000
  H   H3        1.0  0.4249539178563282  0.22419850388541818  0.5355652232537977  1.0000
  H   H4        1.0  0.3249629302881658  0.7889735763892531  0.8615910252556205  1.0000
  H   H5        1.0  0.19129991170484573  0.2621956512739416  0.38258651172509417  1.0000
  H   H6        1.0  0.38171691687421117  0.4009137212706264  0.8193949572914789  1.0000
  H   H7        1.0  0.4817405384965241  0.6146785568853375  0.776517711346969  1.0000
  H   H8        1.0  0.4031936023675371  0.7481072057416895  0.6860434098052792  1.0000
  H   H9        1.0  0.9490276880278543  0.0059386259817983955  0.6545411618935759  1.0000
  H   H10       1.0  0.6508261638082331  0.16620964009780437  0.05343030995572917  1.0000
  H   H11       1.0  0.5014352371217683  0.8660360586945899  0.0921627137431642  1.0000
  H   H12       1.0  0.4102930899243802  0.5002171509549953  0.2951397495344281  1.0000
  O   O1        1.0  0.4218990741210291  0.9059246706601698  0.269482795993099  1.0000
  O   O2        1.0  0.20370060102868592  0.9975991647588671  0.23065037303604186  1.0000
  O   O3        1.0  0.3519582631124649  0.02640768400306115  0.16630984475341393  1.0000
  O   O4        1.0  0.028324317885562778  0.7563996887765825  0.7674557107966393  1.0000
  O   O5        1.0  0.2551344942621654  0.019577226954424987  0.9723352891342074  1.0000
  O   O6        1.0  0.7775400626705959  0.11596253688912839  0.0069891829043626785  1.0000
  O   O7        1.0  0.02411588712129742  0.24781882180832326  0.5583654504880542  1.0000
  O   O8        1.0  0.41378572749817977  0.9109305095116724  0.5561320116030402  1.0000
  O   O9        1.0  0.024084360411507078  0.8200594073859975  0.3251503279971075  1.0000
  O   O10       1.0  0.24984711478282406  0.9386382797383703  0.5952947356272489  1.0000
data_image21
_chemical_formula_structural       Sr2Cu2H12O10
_chemical_formula_sum              "Sr2 Cu2 H12 O10"
_cell_length_a       6.296725
_cell_length_b       5.467378000000002
_cell_length_c       7.977295878227032
_cell_angle_alpha    72.20561901156641
_cell_angle_beta     90.0
_cell_angle_gamma    90.0

_space_group_name_H-M_alt    "P 1"
_space_group_IT_number       1

loop_
  _space_group_symop_operation_xyz
  'x, y, z'

loop_
  _atom_site_type_symbol
  _atom_site_label
  _atom_site_symmetry_multiplicity
  _atom_site_fract_x
  _atom_site_fract_y
  _atom_site_fract_z
  _atom_site_occupancy
  Sr  Sr1       1.0  0.7810990482976194  0.8477240107313264  0.41535690923046786  1.0000
  Sr  Sr2       1.0  0.4248121600248851  0.8897851221263409  0.1893002723227255  1.0000
  Cu  Cu1       1.0  0.04278803849592805  0.5579196871258318  0.14409299445105717  1.0000
  Cu  Cu2       1.0  0.07437215012760134  0.413770077371737  0.046604836359620094  1.0000
  H   H1        1.0  0.3771041472682555  0.7897152756340802  0.8871309214446228  1.0000
  H   H2        1.0  0.8863124097697437  0.41677540517412126  0.35227407013007905  1.0000
  H   H3        1.0  0.43691329180728644  0.7214760046335869  0.5760054850834422  1.0000
  H   H4        1.0  0.4213354270905256  0.7288542804308236  0.3312043026089668  1.0000
  H   H5        1.0  0.45380161341745406  0.616309036151506  0.6628397810854949  1.0000
  H   H6        1.0  0.4634336898989204  0.19216727899038233  0.6877224209774795  1.0000
  H   H7        1.0  0.7361894220812246  0.5290125472820364  0.4742451204219833  1.0000
  H   H8        1.0  0.011124323034891859  0.5234982352412771  0.10706288537039654  1.0000
  H   H9        1.0  0.3100262193074741  0.24980356957530603  0.9787645606993465  1.0000
  H   H10       1.0  0.490755288512446  0.48514975409489125  0.27771692408714443  1.0000
  H   H11       1.0  0.36053873936180025  0.2922466868767515  0.2266945466690231  1.0000
  H   H12       1.0  0.5053749007638544  0.4830222869059071  0.6637212154455483  1.0000
  O   O1        1.0  0.9011010520334821  0.1744570030423347  0.10430591856129467  1.0000
  O   O2        1.0  0.17430652330222074  0.6212582447333261  0.9895790796963411  1.0000
  O   O3        1.0  0.7432859053224092  0.5831877618984436  0.9073420302229351  1.0000
  O   O4        1.0  0.6044138963334262  0.6636828699847683  0.7705024423776194  1.0000
  O   O5        1.0  0.17115710653160932  0.31661521263231407  0.013059353404969443  1.0000
  O   O6        1.0  0.05596786492969841  0.291290178662166  0.8897830964706372  1.0000
  O   O7        1.0  0.4240217194892466  0.724043624009937  0.24863826984073967  1.0000
  O   O8        1.0  0.9359674334555166  0.3166686655313242  0.9930909387185238  1.0000
  O   O9        1.0  0.1542882965732133  0.9184503234282602  0.6204677621281007  1.0000
  O   O10       1.0  0.41267993412975557  0.24473915784619749  0.39297213521786034  1.0000
data_image22
_chemical_formula_structural       Sr2Cu2H12O10
_chemical_formula_sum              "Sr2 Cu2 H12 O10"
_cell_length_a       6.296725
_cell_length_b       5.467378000000002
_cell_length_c       7.977295878227032
_cell_angle_alpha    72.20561901156641
_cell_angle_beta     90.0
_cell_angle_gamma    90.0

_space_group_name_H-M_alt    "P 1"
_space_group_IT_number       1

loop_
  _space_group_symop_operation_xyz
  'x, y, z'

loop_
  _atom_site_type_symbol
  _atom_site_label
  _atom_site_symmetry_multiplicity
  _atom_site_fract_x
  _atom_site_fract_y
  _atom_site_fract_z
  _atom_site_occupancy
  Sr  Sr1       1.0  0.7018140893633245  0.23541193574783392  0.042599381689797156  1.0000
  Sr  Sr2       1.0  0.05875183915486559  0.8373041817685589  0.5308309906977229  1.0000
  Cu  Cu1       1.0  0.7902406045468524  0.11366677808109671  0.6513378712697886  1.0000
  Cu  Cu2       1.0  0.6302473294344964  0.044606430805288255  0.3490761427965481  1.0000
  H   H1        1.0  0.22541586379520595  0.07374602893833071  0.39285164304601494  1.0000
  H   H2        1.0  0.39382924512028694  0.892828980460763  0.8797297137789428  1.0000
  H   H3        1.0  0.9291888069128618  0.7295423382893205  0.6165513609303162  1.0000
  H   H4        1.0  0.28067424334585667  0.6464233812876046  0.3710759333334863  1.0000
  H   H5        1.0  0.022158510342705995  0.9563082078821026  0.49300971743650734  1.0000
  H   H6        1.0  0.27636691956286086  0.7980613241088577  0.4100668004975887  1.0000
  H   H7        1.0  0.37736688734730706  0.8258592607453465  0.06800933351041749  1.0000
  H   H8        1.0  0.6886332890426274  0.2576307640701998  0.5571175765544467  1.0000
  H   H9        1.0  0.8897521073213284  0.5855328836478293  0.41935100637056166  1.0000
  H   H10       1.0  0.08382935183180962  0.417106022243388  0.2793531943461858  1.0000
  H   H11       1.0  0.6948725510155782  0.7910350751481019  0.5691199836874148  1.0000
  H   H12       1.0  0.3522126649040729  0.9003713921410963  0.5762342321686447  1.0000
  O   O1        1.0  0.05914892196597066  0.24561330721189734  0.26523437461582944  1.0000
  O   O2        1.0  0.8735615808727744  0.8232177359823254  0.7634471330629822  1.0000
  O   O3        1.0  0.29560521378880367  0.5952317258561379  0.33555914007592946  1.0000
  O   O4        1.0  0.37543397792614996  0.9164291744818911  0.172220564505551  1.0000
  O   O5        1.0  0.13690070461598225  0.34901992944651283  0.486648039186548  1.0000
  O   O6        1.0  0.3456240830128081  0.4166865904117003  0.06997359188972041  1.0000
  O   O7        1.0  0.12189696589484811  0.6734968174714595  0.2811930337775266  1.0000
  O   O8        1.0  0.49141418462022557  0.21177662848640466  0.8734287000261247  1.0000
  O   O9        1.0  0.23414456131285988  0.367558745900169  0.4499544696009252  1.0000
  O   O10       1.0  0.18810372556981747  0.7403846064116806  0.5805592264514416  1.0000
data_image23
_chemical_formula_structural       Sr2Cu2H12O10
_chemical_formula_sum              "Sr2 Cu2 H12 O10"
_cell_length_a       6.296725
_cell_length_b       5.467378000000002
_cell_length_c       7.977295878227032
_cell_angle_alpha    72.20561901156641
_cell_angle_beta     90.0
_cell_angle_gamma    90.0

_space_group_name_H-M_alt    "P 1"
_space_group_IT_number       1

loop_
  _space_group_symop_operation_xyz
  'x, y, z'

loop_
  _atom_site_type_symbol
  _atom_site_label
  _atom_site_symmetry_multiplicity
  _atom_site_fract_x
  _atom_site_fract_y
  _atom_site_fract_z
  _atom_site_occupancy
  Sr  Sr1       1.0  0.902078653612989  0.955821680923691  0.7019398356205784  1.0000
  Sr  Sr2       1.0  0.6770604542689398  0.5778590716654435  0.35559517005458474  1.0000
  Cu  Cu1       1.0  0.7986090066260658  0.7831583648221567  0.1191525514004752  1.0000
  Cu  Cu2       1.0  0.650484460638836  0.007178846572060138  0.7253909922437742  1.0000
  H   H1        1.0  0.029921523382654414  0.7805796836619265  0.41690991139330436  1.0000
  H   H2        1.0  0.9888738812878728  0.830670100171119  0.03254380845464766  1.0000
  H   H3        1.0  0.1525096398545429  0.08408133470220491  0.7465277127339505  1.0000
  H   H4        1.0  0.2236737720668316  0.8062987234443426  0.2512726467102766  1.0000
  H   H5        1.0  0.4973314388626022  0.3697954251547344  0.19069574435707182  1.0000
  H   H6        1.0  0.5929127322306158  0.37444242608034983  0.1041012572532054  1.0000
  H   H7        1.0  0.6859922211733647  0.8995657333289273  0.27102791948709637  1.0000
  H   H8        1.0  0.7157834877725691  0.8798664035275578  0.7340906946483301  1.0000
  H   H9        1.0  0.4326911187617952  0.493552177111269  0.6785020524257561  1.0000
  H   H10       1.0  0.10426466185890604  0.2337226039962843  0.8763585046399385  1.0000
  H   H11       1.0  0.5219205394387245  0.007864629267714918  0.4072370158828562  1.0000
  H   H12       1.0  0.2422616460826248  0.6841848713811487  0.43688613176345825  1.0000
  O   O1        1.0  0.2625014222576283  0.3295089308085153  0.13436825454118662  1.0000
  O   O2        1.0  0.0013775188617728418  0.2615682881005341  0.19110754209577863  1.0000
  O   O3        1.0  0.4073531366448151  0.9319367385360238  0.03304321140603861  1.0000
  O   O4        1.0  0.3243734767893329  0.36243634682614356  0.04739683010848239  1.0000
  O   O5        1.0  0.2742590340494644  0.09731859108433127  0.365040135307936  1.0000
  O   O6        1.0  0.1339342495193705  0.6315750685753301  0.8452437650121283  1.0000
  O   O7        1.0  0.6833546832203865  0.7762597342953086  0.8927936325053452  1.0000
  O   O8        1.0  0.3175299337708566  0.3554848073545145  0.6263940729404567  1.0000
  O   O9        1.0  0.024447613934171386  0.7492661615251563  0.8469950138096465  1.0000
  O   O10       1.0  0.5137187293239549  0.5475058133015409  0.4575790235539898  1.0000
data_image24
_chemical_formula_structural       Sr2Cu2H12O10
_chemical_formula_sum              "Sr2 Cu2 H12 O10"
_cell_length_a       6.296725
_cell_length_b       5.467378000000002
_cell_length_c       7.977295878227032
_cell_angle_alpha    72.20561901156641
_cell_angle_beta     90.0
_cell_angle_gamma    90.0

_space_group_name_H-M_alt    "P 1"
_space_group_IT_number       1

loop_
  _space_group_symop_operation_xyz
  'x, y, z'

loop_
  _atom_site_type_symbol
  _atom_site_label
  _atom_site_symmetry_multiplicity
  _atom_site_fract_x
  _atom_site_fract_y
  _atom_site_fract_z
  _atom_site_occupancy
  Sr  Sr1       1.0  0.3152859055553563  0.8125663745449856  0.6819249825493898  1.0000
  Sr  Sr2       1.0  0.8158752469462343  0.7356698433868587  0.41773270367411897  1.0000
  Cu  Cu1       1.0  0.7437375945155509  0.7614974483149126  0.806673263956327  1.0000
  Cu  Cu2       1.0  0.31968655977834715  0.8095214840141125  0.5804395168379415  1.0000
  H   H1        1.0  0.5989895221136976  0.40495253121480346  0.33993641621782444  1.0000
  H   H2        1.0  0.7920486116781831  0.537778354017064  0.5248879054561257  1.0000
  H   H3        1.0  0.9857027585385367  0.12032945640385151  0.0017293814453296363  1.0000
  H   H4        1.0  0.34855400305241346  0.09350527077913284  0.6117093339562416  1.0000
  H   H5        1.0  0.2086727288115071  0.042744659702293575  0.5478508429368958  1.0000
  H   H6        1.0  0.2317497952026315  0.7379661414306611  0.070884461820242  1.0000
  H   H7        1.0  0.8930177535512485  0.24856383059523068  0.5470310137025081  1.0000
  H   H8        1.0  0.7933183872664813  0.877500374626834  0.9079591021236411  1.0000
  H   H9        1.0  0.5722407872926851  0.5976393692399142  0.7802762903666007  1.0000
  H   H10       1.0  0.1365177178522572  0.5771418149815872  0.5158577359106857  1.0000
  H   H11       1.0  0.1565019307890907  0.45938499562907964  0.659963966201758  1.0000
  H   H12       1.0  0.521588935283944  0.7758449272951111  0.8906215946190059  1.0000
  O   O1        1.0  0.7746741524751997  0.421464218525216  0.05640874936943874  1.0000
  O   O2        1.0  0.8821071796828619  0.5682312979042763  0.3937515290635929  1.0000
  O   O3        1.0  0.9451698354241671  0.7260392134885478  0.06456855363649083  1.0000
  O   O4        1.0  0.21255510789342225  0.4736447058385238  0.7672989034908824  1.0000
  O   O5        1.0  0.4597517478832742  0.26838215038878843  0.28767464486008976  1.0000
  O   O6        1.0  0.10877448867540807  0.9255564856575802  0.3268178713915404  1.0000
  O   O7        1.0  0.908180687809363  0.06293675652705133  0.15650761112920009  1.0000
  O   O8        1.0  0.6911058172336197  0.3488920833224256  0.3178219687906676  1.0000
  O   O9        1.0  0.31485940780839883  0.05890348812681623  0.38689273349154973  1.0000
  O   O10       1.0  0.41869656866902005  0.26796575787011534  0.6442689202958718  1.0000
data_image25
_chemical_formula_structural       Sr2Cu2H12O10
_chemical_formula_sum              "Sr2 Cu2 H12 O10"
_cell_length_a       6.296725
_cell_length_b       5.467378000000002
_cell_length_c       7.977295878227032
_cell_angle_alpha    72.20561901156641
_cell_angle_beta     90.0
_cell_angle_gamma    90.0

_space_group_name_H-M_alt    "P 1"
_space_group_IT_number       1

loop_
  _space_group_symop_operation_xyz
  'x, y, z'

loop_
  _atom_site_type_symbol
  _atom_site_label
  _atom_site_symmetry_multiplicity
  _atom_site_fract_x
  _atom_site_fract_y
  _atom_site_fract_z
  _atom_site_occupancy
  Sr  Sr1       1.0  0.19188110352843069  0.23540232071536593  0.3156746433087392  1.0000
  Sr  Sr2       1.0  0.6751055003842339  0.08768231142312288  0.30887794712907635  1.0000
  Cu  Cu1       1.0  0.12658817082410678  0.0713953070808202  0.638988930691994  1.0000
  Cu  Cu2       1.0  0.4033239784112084  0.6711134595097974  0.5177059599664062  1.0000
  H   H1        1.0  0.4672298963996582  0.3672330573317595  0.4234464090404799  1.0000
  H   H2        1.0  0.38594738207757473  0.07271968317218125  0.05242670513689518  1.0000
  H   H3        1.0  0.8093779406044632  0.9072311056079343  0.9305576476617716  1.0000
  H   H4        1.0  0.666243446059525  0.23416036635171622  0.1096982304006815  1.0000
  H   H5        1.0  0.32243180213845335  0.8399079840746708  0.1799261774867773  1.0000
  H   H6        1.0  0.6250240105873672  0.8382774805540976  0.3756313798658084  1.0000
  H   H7        1.0  0.9247969081625342  0.6430054006632417  0.10386613814625889  1.0000
  H   H8        1.0  0.9157319320947863  0.7353296198998578  0.9775473109148152  1.0000
  H   H9        1.0  0.6316946268598258  0.7705469582870137  0.4790737331859418  1.0000
  H   H10       1.0  0.6285271960368846  0.5438933994155377  0.9043389311991632  1.0000
  H   H11       1.0  0.08362281159497797  0.5190977468737401  0.1283566737693036  1.0000
  H   H12       1.0  0.03574804915115237  0.044496495233033784  0.5971642844378948  1.0000
  O   O1        1.0  0.7350978237518575  0.3506931654555956  0.043106997094582766  1.0000
  O   O2        1.0  0.15128012120294443  0.45126869609521236  0.07895568177991663  1.0000
  O   O3        1.0  0.6147262692102231  0.7084675773148774  0.43730496015632525  1.0000
  O   O4        1.0  0.5765046258457005  0.5710807922296226  0.3434645899105817  1.0000
  O   O5        1.0  0.3438379328872543  0.9177764316264074  0.9008595261402661  1.0000
  O   O6        1.0  0.8517623982625082  0.8870840220479295  0.4798502598423511  1.0000
  O   O7        1.0  0.6598879066295922  0.297262710519135  0.8480744383123238  1.0000
  O   O8        1.0  0.9677937015949283  0.7862417727592401  0.45015905102627585  1.0000
  O   O9        1.0  0.4264026231976459  0.36597305492614396  0.35176803338254103  1.0000
  O   O10       1.0  0.8776758149315356  0.8667162711499259  0.7816573570016772  1.0000
data_image26
_chemical_formula_structural       Sr2Cu2H12O10
_chemical_formula_sum              "Sr2 Cu2 H12 O10"
_cell_length_a       6.296725
_cell_length_b       5.467378000000002
_cell_length_c       7.977295878227032
_cell_angle_alpha    72.20561901156641
_cell_angle_beta     90.0
_cell_angle_gamma    90.0

_space_group_name_H-M_alt    "P 1"
_space_group_IT_number       1

loop_
  _space_group_symop_operation_xyz
  'x, y, z'

loop_
  _atom_site_type_symbol
  _atom_site_label
  _atom_site_symmetry_multiplicity
  _atom_site_fract_x
  _atom_site_fract_y
  _atom_site_fract_z
  _atom_site_occupancy
  Sr  Sr1       1.0  0.15613941372430418  0.9476056036073714  0.91821322432952  1.0000
  Sr  Sr2       1.0  0.00027569709345698357  0.7097038401989266  0.9916221855601179  1.0000
  Cu  Cu1       1.0  0.7757854242809117  0.811284436553251  0.9976532954315189  1.0000
  Cu  Cu2       1.0  0.04725214041536674  0.022708668373525143  0.33073540293844417  1.0000
  H   H1        1.0  0.8062667541671544  0.2195279294392094  0.8407865168410353  1.0000
  H   H2        1.0  0.2446182742714882  0.9595713117159903  0.5452049365267158  1.0000
  H   H3        1.0  0.5116834420477971  0.7126843234873377  0.27694093878380954  1.0000
  H   H4        1.0  0.858107902109623  0.27766294521279633  0.3822282198816538  1.0000
  H   H5        1.0  0.7460319252568297  0.5575591261149384  0.6239685486652888  1.0000
  H   H6        1.0  0.7132476937549654  0.6755131174868438  0.9459531034299289  1.0000
  H   H7        1.0  0.9434188442537561  0.022455157479271293  0.7428867629787419  1.0000
  H   H8        1.0  0.7532887495472096  0.3159376765252091  0.7915873182173527  1.0000
  H   H9        1.0  0.9087424357785494  0.5468352011084789  0.13890537658153335  1.0000
  H   H10       1.0  0.06540202526957728  0.6155193211743608  0.12010694577475078  1.0000
  H   H11       1.0  0.38004394504241645  0.714946856838651  0.1654849664773792  1.0000
  H   H12       1.0  0.5847523806151003  0.357116389030125  0.2801611009053886  1.0000
  O   O1        1.0  0.1143364251620369  0.4206089052531752  0.25540735833055805  1.0000
  O   O2        1.0  0.7585380119544425  0.5370278966875048  0.8869724835458328  1.0000
  O   O3        1.0  0.6884646042599343  0.27592724331771024  0.6472360379702877  1.0000
  O   O4        1.0  0.37643759313505143  0.8212110818130895  0.9198560616932809  1.0000
  O   O5        1.0  0.17040096304845065  0.7412039963382995  0.0092945798241999  1.0000
  O   O6        1.0  0.43275758519303054  0.7433289310429245  0.4701296875718981  1.0000
  O   O7        1.0  0.8322131745517254  0.7017427366226912  0.10242384784214664  1.0000
  O   O8        1.0  0.09495942560897674  0.9687151838516002  0.501803173297958  1.0000
  O   O9        1.0  0.7304947716038441  0.5021050833456684  0.04875763268501032  1.0000
  O   O10       1.0  0.7518453319680702  0.13519798207562417  0.1424719539936632  1.0000
data_image27
_chemical_formula_structural       Sr2Cu2H12O10
_chemical_formula_sum              "Sr2 Cu2 H12 O10"
_cell_length_a       6.296725
_cell_length_b       5.467378000000002
_cell_length_c       7.977295878227032
_cell_angle_alpha    72.20561901156641
_cell_angle_beta     90.0
_cell_angle_gamma    90.0

_space_group_name_H-M_alt    "P 1"
_space_group_IT_number       1

loop_
  _space_group_symop_operation_xyz
  'x, y, z'

loop_
  _atom_site_type_symbol
  _atom_site_label
  _atom_site_symmetry_multiplicity
  _atom_site_fract_x
  _atom_site_fract_y
  _atom_site_fract_z
  _atom_site_occupancy
  Sr  Sr1       1.0  0.17032838170416653  0.47753482684493065  0.9645780765422387  1.0000
  Sr  Sr2       1.0  0.38253353838808835  0.9503170896787196  0.1754553511600534  1.0000
  Cu  Cu1       1.0  0.5222074440680444  0.40379460027907044  0.5663222562288865  1.0000
  Cu  Cu2       1.0  0.33262453844508855  0.843673093477264  0.6749211195565294  1.0000
  H   H1        1.0  0.0018240473582409322  0.5122326302225702  0.7466574015561491  1.0000
  H   H2        1.0  0.7270575608126819  0.42321717040613294  0.4963639723137021  1.0000
  H   H3        1.0  0.5593147400068119  0.8049958115443587  0.4541733431397006  1.0000
  H   H4        1.0  0.7968494147062302  0.012393703800626099  0.976947077549994  1.0000
  H   H5        1.0  0.21494749566772953  0.9660536639275961  0.3980751075432636  1.0000
  H   H6        1.0  0.4992946948041208  0.12100616880343296  0.07545055010996293  1.0000
  H   H7        1.0  0.311878765700385  0.7303374197799712  0.44483379457960837  1.0000
  H   H8        1.0  0.04221574022085406  0.2530216788927646  0.0096790257266548  1.0000
  H   H9        1.0  0.8571148488335893  0.9279121357540134  0.1527638384141028  1.0000
  H   H10       1.0  0.8020376267377287  0.5376243925420567  0.17379503237316385  1.0000
  H   H11       1.0  0.31268966861534864  0.49127534171566367  0.2744231478864094  1.0000
  H   H12       1.0  0.7439085864461958  0.942303393734619  0.587012535892427  1.0000
  O   O1        1.0  0.21769151183252688  0.6738765034024254  0.06014879941358231  1.0000
  O   O2        1.0  0.056092019975039875  0.2678796428226633  0.8188636168488301  1.0000
  O   O3        1.0  0.059352621392463334  0.4528392027132213  0.9362821677641477  1.0000
  O   O4        1.0  0.8452252229908481  0.5219073379412293  0.3561380567261949  1.0000
  O   O5        1.0  0.9334823275712552  0.8225276075245347  0.23934139667835552  1.0000
  O   O6        1.0  0.9841622189851478  0.6328459612559527  0.389776562951738  1.0000
  O   O7        1.0  0.048067381721921265  0.871296756900847  0.8577215507684741  1.0000
  O   O8        1.0  0.935054972243961  0.8830181723751593  0.6657357030744606  1.0000
  O   O9        1.0  0.9686166707397206  0.3053804407827556  0.8054084046962089  1.0000
  O   O10       1.0  0.8202069966228009  0.5054678519954905  0.8159444420598447  1.0000
data_image28
_chemical_formula_structural       Sr2Cu2H12O10
_chemical_formula_sum              "Sr2 Cu2 H12 O10"
_cell_length_a       6.296725
_cell_length_b       5.467378000000002
_cell_length_c       7.977295878227032
_cell_angle_alpha    72.20561901156641
_cell_angle_beta     90.0
_cell_angle_gamma    90.0

_space_group_name_H-M_alt    "P 1"
_space_group_IT_number       1

loop_
  _space_group_symop_operation_xyz
  'x, y, z'

loop_
  _atom_site_type_symbol
  _atom_site_label
  _atom_site_symmetry_multiplicity
  _atom_site_fract_x
  _atom_site_fract_y
  _atom_site_fract_z
  _atom_site_occupancy
  Sr  Sr1       1.0  0.6162009175459389  0.8627775240165647  0.5844294241542229  1.0000
  Sr  Sr2       1.0  0.5156353706261143  0.35813970857998356  0.05028787729679607  1.0000
  Cu  Cu1       1.0  0.007309266715310514  0.047637530660722405  0.4286497141001746  1.0000
  Cu  Cu2       1.0  0.22791411090292968  0.41217890672851354  0.9808037443290232  1.0000
  H   H1        1.0  0.3481215571227949  0.8322924832464196  0.35703010522411205  1.0000
  H   H2        1.0  0.7735307421535254  0.9349389320705086  0.36070773005485535  1.0000
  H   H3        1.0  0.815390236559324  0.3910430980613455  0.5563161278842017  1.0000
  H   H4        1.0  0.5163706662133336  0.6285816141171381  0.2522629862651229  1.0000
  H   H5        1.0  0.20034290922922082  0.9758590197889134  0.4485774472123012  1.0000
  H   H6        1.0  0.20556427648989484  0.32887513589230366  0.19408004623255692  1.0000
  H   H7        1.0  0.7021654287818819  0.5428443587443326  0.09326594361482421  1.0000
  H   H8        1.0  0.9326688773871865  0.3930468639495075  0.5202684896212304  1.0000
  H   H9        1.0  0.5852953134585732  0.6366345961287152  0.3675561355485115  1.0000
  H   H10       1.0  0.9925681926833931  0.7072349904337898  0.5063258516602218  1.0000
  H   H11       1.0  0.7337416572263464  0.8320830283919349  0.7671552300889743  1.0000
  H   H12       1.0  0.38567625009454787  0.7187498968560249  0.9976349878124893  1.0000
  O   O1        1.0  0.3866209134575911  0.6993484721097047  0.33911995647940785  1.0000
  O   O2        1.0  0.27216233748185914  0.707661221123999  0.09278134852502262  1.0000
  O   O3        1.0  0.8354184236086439  0.5920923868907266  0.39217629391350783  1.0000
  O   O4        1.0  0.67634108196944  0.47299812210258096  0.10361435043159872  1.0000
  O   O5        1.0  0.39453844049421605  0.08212217522668652  0.20604776278196368  1.0000
  O   O6        1.0  0.3260769661865197  0.436832960229367  0.6659980557160452  1.0000
  O   O7        1.0  0.8997154858661816  0.8052693423815072  0.828084852633765  1.0000
  O   O8        1.0  0.04627142981917132  0.3175942750167451  0.7968919671839103  1.0000
  O   O9        1.0  0.14062457154795993  0.12152668909402564  0.23811426229804056  1.0000
  O   O10       1.0  0.9878995726030553  0.8205174244358204  0.4523984600091353  1.0000
data_image29
_chemical_formula_structural       Sr2Cu2H12O10
_chemical_formula_sum              "Sr2 Cu2 H12 O10"
_cell_length_a       6.296725
_cell_length_b       5.467378000000002
_cell_length_c       7.977295878227032
_cell_angle_alpha    72.20561901156641
_cell_angle_beta     90.0
_cell_angle_gamma    90.0

_space_group_name_H-M_alt    "P 1"
_space_group_IT_number       1

loop_
  _space_group_symop_operation_xyz
  'x, y, z'

loop_
  _atom_site_type_symbol
  _atom_site_label
  _atom_site_symmetry_multiplicity
  _atom_site_fract_x
  _atom_site_fract_y
  _atom_site_fract_z
  _atom_site_occupancy
  Sr  Sr1       1.0  0.8097433491784614  0.9667436004965566  0.3557547406817321  1.0000
  Sr  Sr2       1.0  0.6209351911675185  0.9330893440637738  0.5695961561868899  1.0000
  Cu  Cu1       1.0  0.9548469382571056  0.9182441968005151  0.7796762962534558  1.0000
  Cu  Cu2       1.0  0.8132464320515282  0.28101063158828765  0.9759651872445829  1.0000
  H   H1        1.0  0.6790206327132182  0.182691290974617  0.46194394200574607  1.0000
  H   H2        1.0  0.4339370150119066  0.8725877546239644  0.14150046138092875  1.0000
  H   H3        1.0  0.13691716804169118  0.6014803742291406  0.9010074132820591  1.0000
  H   H4        1.0  0.18283985182642937  0.4009706031065434  0.12607712391763926  1.0000
  H   H5        1.0  0.268237077165395  0.9323829528875649  0.7196615270222537  1.0000
  H   H6        1.0  0.0728026702417992  0.2612371097493451  0.12049207118980121  1.0000
  H   H7        1.0  0.12514648318756372  0.6684375513868872  0.42396466979698744  1.0000
  H   H8        1.0  0.2921717712015379  0.2701246887918387  0.30247280670300825  1.0000
  H   H9        1.0  0.7858599002374831  0.7251665191579377  0.5777054153440986  1.0000
  H   H10       1.0  0.037591368571156636  0.21400045440532267  0.7561094841221347  1.0000
  H   H11       1.0  0.8663751712301746  0.015204548079054803  0.3192078093852615  1.0000
  H   H12       1.0  0.06914691114798188  0.14389242860488594  0.42651517363265157  1.0000
  O   O1        1.0  0.5492460614768788  0.7149562044942286  0.016747751593356952  1.0000
  O   O2        1.0  0.9008266285527498  0.04808243672596291  0.22238089084567036  1.0000
  O   O3        1.0  0.34251818171469495  0.2324635219265474  0.10241531596693676  1.0000
  O   O4        1.0  0.2793780346401036  0.1857002127217129  0.9272103293333203  1.0000
  O   O5        1.0  0.750724611687474  0.32554739686020184  0.37070716894231737  1.0000
  O   O6        1.0  0.7562452021520585  0.33891756425146013  0.42021940936683677  1.0000
  O   O7        1.0  0.15325666195712984  0.2532012218143791  0.6286225357907824  1.0000
  O   O8        1.0  0.242527779089869  0.7268911036007921  0.5201988437329419  1.0000
  O   O9        1.0  0.5157057489195722  0.037405249604489654  0.5775237901107175  1.0000
  O   O10       1.0  0.20701410570109147  0.15771169937215745  0.2400573039194569  1.0000
data_image30
_chemical_formula_structural       Sr2Cu2H12O10
_chemical_formula_sum              "Sr2 Cu2 H12 O10"
_cell_length_a       6.296725
_cell_length_b       5.467378000000002
_cell_length_c       7.977295878227032
_cell_angle_alpha    72.20561901156641
_cell_angle_beta     90.0
_cell_angle_gamma    90.0

_space_group_name_H-M_alt    "P 1"
_space_group_IT_number       1

loop_
  _space_group_symop_operation_xyz
  'x, y, z'

loop_
  _atom_site_type_symbol
  _atom_site_label
  _atom_site_symmetry_multiplicity
  _atom_site_fract_x
  _atom_site_fract_y
  _atom_site_fract_z
  _atom_site_occupancy
  Sr  Sr1       1.0  0.5699081743368879  0.7453003556584008  0.1585304499603808  1.0000
  Sr  Sr2       1.0  0.26215903321281075  0.9542088968446478  0.06594487238908187  1.0000
  Cu  Cu1       1.0  0.8349841849412769  0.4251732262200676  0.5742007590015419  1.0000
  Cu  Cu2       1.0  0.15378236636752263  0.6603068021358922  0.9999078401997394  1.0000
  H   H1        1.0  0.4945322818675777  0.16412987344665453  0.3121404717094265  1.0000
  H   H2        1.0  0.2522273068316281  0.5235453927889466  0.45505112409591675  1.0000
  H   H3        1.0  0.009078949224203825  0.8000798147404566  0.17893771384842694  1.0000
  H   H4        1.0  0.8862344985827804  0.42533402773551643  0.3633568324148655  1.0000
  H   H5        1.0  0.3513131416984834  0.5569484160514548  0.1105890108156018  1.0000
  H   H6        1.0  0.54565955758153  0.33541258456534706  0.402761823257606  1.0000
  H   H7        1.0  0.02036978502292186  0.25071110951830633  0.34838844940532  1.0000
  H   H8        1.0  0.018023552096565254  0.3051878087790101  0.8222169738728553  1.0000
  H   H9        1.0  0.11941101115553465  0.8580926857539453  0.45214066142216325  1.0000
  H   H10       1.0  0.27151334955124184  0.7113871093606576  0.19094301399309188  1.0000
  H   H11       1.0  0.08658954175189137  0.5619052381371148  0.44017866627837066  1.0000
  H   H12       1.0  0.6350376433692873  0.7021339383209124  0.13045226549729705  1.0000
  O   O1        1.0  0.10246685516904108  0.8326154305250384  0.953755721100606  1.0000
  O   O2        1.0  0.1434016362472903  0.5130645857716445  0.9726860262599075  1.0000
  O   O3        1.0  0.6095406047825236  0.08917318006569985  0.9273679283214733  1.0000
  O   O4        1.0  0.9528653173474595  0.3403636554721743  0.7583533260039985  1.0000
  O   O5        1.0  0.5100437187502393  0.6351305015923572  0.5684193502384005  1.0000
  O   O6        1.0  0.29428568156436086  0.17251391347963363  0.7729845480498625  1.0000
  O   O7        1.0  0.9889345421688631  0.17261475720442832  0.45865187104209326  1.0000
  O   O8        1.0  0.7118148324225331  0.12788993062713416  0.24310791238895035  1.0000
  O   O9        1.0  0.7863654661996407  0.9645736995153129  0.2741940853011329  1.0000
  O   O10       1.0  0.40251661344154854  0.41588196984957904  0.5488963958341628  1.0000
data_image31
_chemical_formula_structural       Sr2Cu2H12O10
_chemical_formula_sum              "Sr2 Cu2 H12 O10"
_cell_length_a       6.296725
_cell_length_b       5.467378000000002
_cell_length_c       7.977295878227032
_cell_angle_alpha    72.20561901156641
_cell_angle_beta     90.0
_cell_angle_gamma    90.0

_space_group_name_H-M_alt    "P 1"
_space_group_IT_number       1

loop_
  _space_group_symop_operation_xyz
  'x, y, z'

loop_
  _atom_site_type_symbol
  _atom_site_label
  _atom_site_symmetry_multiplicity
  _atom_site_fract_x
  _atom_site_fract_y
  _atom_site_fract_z
  _atom_site_occupancy
  Sr  Sr1       1.0  0.7288392560149077  0.8766994808102027  0.1650112878996879  1.0000
  Sr  Sr2       1.0  0.9949751833337359  0.14256724942242727  0.9161832738027442  1.0000
  Cu  Cu1       1.0  0.9460018251556903  0.09816447168122977  0.7590693916426972  1.0000
  Cu  Cu2       1.0  0.008232139807660133  0.02738484274595976  0.3872126104297422  1.0000
  H   H1        1.0  0.06964867835631594  0.9912088579148985  0.8523755220812745  1.0000
  H   H2        1.0  0.3478398132137954  0.6961066734511405  0.48625461012125015  1.0000
  H   H3        1.0  0.7240731458878145  0.46965477417688817  0.7696317377267405  1.0000
  H   H4        1.0  0.10713600553572178  0.109610331710428  0.2901621861383319  1.0000
  H   H5        1.0  0.7978998877224512  0.7715276745148003  0.1484996362705715  1.0000
  H   H6        1.0  0.18894670932058943  0.2673692732641939  0.997117923143378  1.0000
  H   H7        1.0  0.15994366421364248  0.03893632750259712  0.9852245410729665  1.0000
  H   H8        1.0  0.6475187802279834  0.3632719151355559  0.4536903123371303  1.0000
  H   H9        1.0  0.5665105134175974  0.14051029388792813  0.6801028820918873  1.0000
  H   H10       1.0  0.7794299428642262  0.46189979097107425  0.7203252001781948  1.0000
  H   H11       1.0  0.9120650398544967  0.19029039976885542  0.09830204484751448  1.0000
  H   H12       1.0  0.5307877780869603  0.3598459924105555  0.3496050424873829  1.0000
  O   O1        1.0  0.36689152114558965  0.926204086310463  0.45233972248388454  1.0000
  O   O2        1.0  0.5703283222392201  0.0038412150170188397  0.9314435661508469  1.0000
  O   O3        1.0  0.2895107704680413  0.12375559612701181  0.49925663546309806  1.0000
  O   O4        1.0  0.32766189181711525  0.6731164111988619  0.7999956347048283  1.0000
  O   O5        1.0  0.24716974535840563  0.6944323596981121  0.7330458618380362  1.0000
  O   O6        1.0  0.3485998051473871  0.5273795451503247  0.7608618849008053  1.0000
  O   O7        1.0  0.10309084155596793  0.478291459614411  0.368135645869188  1.0000
  O   O8        1.0  0.4224777976196492  0.24494367173610954  0.7949160083326205  1.0000
  O   O9        1.0  0.9562892922112951  0.5335094070469495  0.3863560828322079  1.0000
  O   O10       1.0  0.2537181980223977  0.6071667039068416  0.09959798608906567  1.0000
data_image32
_chemical_formula_structural       Sr2Cu2H12O10
_chemical_formula_sum              "Sr2 Cu2 H12 O10"
_cell_length_a       6.296725
_cell_length_b       5.467378000000002
_cell_length_c       7.977295878227032
_cell_angle_alpha    72.20561901156641
_cell_angle_beta     90.0
_cell_angle_gamma    90.0

_space_group_name_H-M_alt    "P 1"
_space_group_IT_number       1

loop_
  _space_group_symop_operation_xyz
  'x, y, z'

loop_
  _atom_site_type_symbol
  _atom_site_label
  _atom_site_symmetry_multiplicity
  _atom_site_fract_x
  _atom_site_fract_y
  _atom_site_fract_z
  _atom_site_occupancy
  Sr  Sr1       1.0  0.42668057361152023  0.5380204684042837  0.1539255168463569  1.0000
  Sr  Sr2       1.0  0.12213621643604711  0.0420010817470029  0.28680996541515924  1.0000
  Cu  Cu1       1.0  0.6851279293186963  0.2827468868927099  0.453054707380943  1.0000
  Cu  Cu2       1.0  0.5298527259728871  0.1634490815922618  0.6328163029938878  1.0000
  H   H1        1.0  0.05631888363859616  0.4881512060528621  0.9507668211590499  1.0000
  H   H2        1.0  0.2789873597212136  0.9860550940502435  0.2808124893344939  1.0000
  H   H3        1.0  0.8167474218644202  0.2743954559555277  0.07128072646446526  1.0000
  H   H4        1.0  0.5445907842367887  0.8825928184669465  0.7562735956162214  1.0000
  H   H5        1.0  0.5487436988623813  0.4111389076570049  0.4335142564959824  1.0000
  H   H6        1.0  0.4218583291294635  0.014056505868211389  0.054500047030160204  1.0000
  H   H7        1.0  0.8426653017522767  0.1052595076180296  0.381165692320792  1.0000
  H   H8        1.0  0.937713688792428  0.6978256645816145  0.08419394378142897  1.0000
  H   H9        1.0  0.07180812247315771  0.487109406691161  0.5925250078726094  1.0000
  H   H10       1.0  0.9925628141063498  0.8138085025711916  0.7023135561030358  1.0000
  H   H11       1.0  0.7873133183456957  0.8189806519076228  0.15935583738610148  1.0000
  H   H12       1.0  0.7429972891695797  0.7667922591790557  0.01986753148958087  1.0000
  O   O1        1.0  0.8445129322935827  0.27322411409113556  0.4986879153875634  1.0000
  O   O2        1.0  0.17036115235532634  0.7827924107550643  0.8042036918050144  1.0000
  O   O3        1.0  0.22892976082948735  0.45373497215041425  0.4659170653030742  1.0000
  O   O4        1.0  0.13584999938029796  0.44510848622303456  0.5707428978057578  1.0000
  O   O5        1.0  0.6293879845034098  0.5716571792436298  0.4594002198573435  1.0000
  O   O6        1.0  0.4749166331021115  0.24715143837966025  0.025392984415702813  1.0000
  O   O7        1.0  0.6511830348754302  0.5381082142703235  0.1531178759469185  1.0000
  O   O8        1.0  0.45510589291370707  0.11560764219029807  0.7665582803310826  1.0000
  O   O9        1.0  0.7288290779397357  0.47548710396222305  0.005501057574292645  1.0000
  O   O10       1.0  0.10322775597160216  0.2776787244947627  0.865369247389026  1.0000
data_image33
_chemical_formula_structural       Sr2Cu2H12O10
_chemical_formula_sum              "Sr2 Cu2 H12 O10"
_cell_length_a       6.296725
_cell_length_b       5.467378000000002
_cell_length_c       7.977295878227032
_cell_angle_alpha    72.20561901156641
_cell_angle_beta     90.0
_cell_angle_gamma    90.0

_space_group_name_H-M_alt    "P 1"
_space_group_IT_number       1

loop_
  _space_group_symop_operation_xyz
  'x, y, z'

loop_
  _atom_site_type_symbol
  _atom_site_label
  _atom_site_symmetry_multiplicity
  _atom_site_fract_x
  _atom_site_fract_y
  _atom_site_fract_z
  _atom_site_occupancy
  Sr  Sr1       1.0  0.8494340292818379  0.363970841106493  0.8874382967915153  1.0000
  Sr  Sr2       1.0  0.12913127767387778  0.9025015663937666  0.9654338260297664  1.0000
  Cu  Cu1       1.0  0.6021117356140167  0.5512143772211857  0.1495670435251668  1.0000
  Cu  Cu2       1.0  0.8490984204690903  0.6887064890470356  0.1368326501269621  1.0000
  H   H1        1.0  0.010714828211348504  0.26045207073912024  0.7221673272433691  1.0000
  H   H2        1.0  0.8229631343856454  0.14399440167471766  0.05815941235050559  1.0000
  H   H3        1.0  0.30848019721452147  0.3269523771596141  0.6034249956719577  1.0000
  H   H4        1.0  0.83334581553936  0.8795186567585915  0.722350109834224  1.0000
  H   H5        1.0  0.8473617935087532  0.4724503339966759  0.5955245373188518  1.0000
  H   H6        1.0  0.6904709520676988  0.47488046140642837  0.17262759897857904  1.0000
  H   H7        1.0  0.9601904886076227  0.5667506051395321  0.43515767811913975  1.0000
  H   H8        1.0  0.8711192664050031  0.39890651030873414  0.45579805826127995  1.0000
  H   H9        1.0  0.6674225297756493  0.9244726727629313  0.4609978759253863  1.0000
  H   H10       1.0  0.14707936022387003  0.7950478295679204  0.8965255476068705  1.0000
  H   H11       1.0  0.5765156137058511  0.1892801073845476  0.14406300830160035  1.0000
  H   H12       1.0  0.19955732743255794  0.32379934936761856  0.2893832176923752  1.0000
  O   O1        1.0  0.9708996468398254  0.7956486009934451  0.41916920855874196  1.0000
  O   O2        1.0  0.15287891411571763  0.5705512201820966  0.39809409965528175  1.0000
  O   O3        1.0  0.1689679364717449  0.9686712872935459  0.5396408237284049  1.0000
  O   O4        1.0  0.029130660695955157  0.28352118004113436  0.3458463290007785  1.0000
  O   O5        1.0  0.7655506257142406  0.06591337712598033  0.8217257078649709  1.0000
  O   O6        1.0  0.28806717024417594  0.8033265576232225  0.9104707539045194  1.0000
  O   O7        1.0  0.6921470036031678  0.6194057075772434  0.054158793500391766  1.0000
  O   O8        1.0  0.33617720254551386  0.7338138477643952  0.8269102760823444  1.0000
  O   O9        1.0  0.21472289574012393  0.2011396660200262  0.4587896324337635  1.0000
  O   O10       1.0  0.22060185002919752  0.052789413894061  0.560273579438217  1.0000
data_image34
_chemical_formula_structural       Sr2Cu2H12O10
_chemical_formula_sum              "Sr2 Cu2 H12 O10"
_cell_length_a       6.296725
_cell_length_b       5.467378000000002
_cell_length_c       7.977295878227032
_cell_angle_alpha    72.20561901156641
_cell_angle_beta     90.0
_cell_angle_gamma    90.0

_space_group_name_H-M_alt    "P 1"
_space_group_IT_number       1

loop_
  _space_group_symop_operation_xyz
  'x, y, z'

loop_
  _atom_site_type_symbol
  _atom_site_label
  _atom_site_symmetry_multiplicity
  _atom_site_fract_x
  _atom_site_fract_y
  _atom_site_fract_z
  _atom_site_occupancy
  Sr  Sr1       1.0  0.7043271739676129  0.0637782922713086  0.7156529103231151  1.0000
  Sr  Sr2       1.0  0.47859244083520025  0.3521936681936495  0.7945957453630399  1.0000
  Cu  Cu1       1.0  0.8224399001337588  0.3686361058498733  0.6435127226577606  1.0000
  Cu  Cu2       1.0  0.0945575544028543  0.2942434963770211  0.8196954660706979  1.0000
  H   H1        1.0  0.40724558336660266  0.6980409944080748  0.6551703653531149  1.0000
  H   H2        1.0  0.9460197417065501  0.795067768311128  0.5442940834909678  1.0000
  H   H3        1.0  0.8807211495004594  0.39056725439149886  0.9047634566086344  1.0000
  H   H4        1.0  0.4459398528560996  0.2733689353335649  0.7322657569311559  1.0000
  H   H5        1.0  0.656751707138028  0.9727605899679475  0.5923920761561021  1.0000
  H   H6        1.0  0.8278709842270473  0.9517872685391922  0.40037140071217436  1.0000
  H   H7        1.0  0.19649832125287503  0.05819442440133571  0.13892078638309613  1.0000
  H   H8        1.0  0.12998633322422393  0.03814029469140223  0.7706158514556591  1.0000
  H   H9        1.0  0.03659112812601961  0.9295719859655946  0.3356417715549469  1.0000
  H   H10       1.0  0.7964768318342976  0.7121843241620809  0.2680466022575274  1.0000
  H   H11       1.0  0.3856918917153962  0.038964433362707496  0.6408343915900332  1.0000
  H   H12       1.0  0.6082098740153015  0.2822944335639477  0.11759247817099094  1.0000
  O   O1        1.0  0.3792757951596286  0.5285566778911743  0.12740309402579442  1.0000
  O   O2        1.0  0.9561189718515379  0.36076978110941127  0.996830572214094  1.0000
  O   O3        1.0  0.48257694079802604  0.0837748287958675  0.37520934510394  1.0000
  O   O4        1.0  0.7726484688464552  0.06058271578513086  0.2281550319166854  1.0000
  O   O5        1.0  0.742089647850662  0.78925496643933  0.32258101273328066  1.0000
  O   O6        1.0  0.08885738725075498  0.27998075005598366  0.6320814312384755  1.0000
  O   O7        1.0  0.09163948416244239  0.47992046969011426  0.3734208306996152  1.0000
  O   O8        1.0  0.7194343318842584  0.1266963897505775  0.49533009354490787  1.0000
  O   O9        1.0  0.39593296853854554  0.7981043184627197  0.11262632559373742  1.0000
  O   O10       1.0  0.04475468079908751  0.020439685031306  0.8672270766692236  1.0000
data_image35
_chemical_formula_structural       Sr2Cu2H12O10
_chemical_formula_sum              "Sr2 Cu2 H12 O10"
_cell_length_a       6.296725
_cell_length_b       5.467378000000002
_cell_length_c       7.977295878227032
_cell_angle_alpha    72.20561901156641
_cell_angle_beta     90.0
_cell_angle_gamma    90.0

_space_group_name_H-M_alt    "P 1"
_space_group_IT_number       1

loop_
  _space_group_symop_operation_xyz
  'x, y, z'

loop_
  _atom_site_type_symbol
  _atom_site_label
  _atom_site_symmetry_multiplicity
  _atom_site_fract_x
  _atom_site_fract_y
  _atom_site_fract_z
  _atom_site_occupancy
  Sr  Sr1       1.0  0.15062686122837476  0.07533577180583961  0.7870409446622944  1.0000
  Sr  Sr2       1.0  0.9366618621279486  0.21074108208995312  0.2448204765387345  1.0000
  Cu  Cu1       1.0  0.1468926976667717  0.8537612817017362  0.4163676631869748  1.0000
  Cu  Cu2       1.0  0.0716255500447005  0.1725542286876589  0.9126266611820029  1.0000
  H   H1        1.0  0.37264081375906244  0.5461662440793589  0.23963674594415352  1.0000
  H   H2        1.0  0.4212917876429856  0.21031596208922565  0.20633239392191172  1.0000
  H   H3        1.0  0.6992069518892094  0.16243593976832926  0.5724014083971269  1.0000
  H   H4        1.0  0.6775999357923865  0.5961837640497833  0.43964949110522866  1.0000
  H   H5        1.0  0.2872204133309424  0.01606762845767662  0.9387484355829656  1.0000
  H   H6        1.0  0.5473869488487253  0.8271077094250359  0.4002820849636919  1.0000
  H   H7        1.0  0.2820074772462249  0.2593546586758748  0.4643270106171258  1.0000
  H   H8        1.0  0.26117781759239733  0.15511069902277086  0.9573775036460574  1.0000
  H   H9        1.0  0.7849665704416111  0.4657876111450605  0.6563388584181666  1.0000
  H   H10       1.0  0.9414406755240634  0.21737178129842505  0.7525485320365988  1.0000
  H   H11       1.0  0.6903280883270781  0.4274992448044941  0.5918959742994048  1.0000
  H   H12       1.0  0.6068414952605963  0.44246352021582425  0.2575529981404543  1.0000
  O   O1        1.0  0.6506744856596924  0.8680199244408868  0.38639134287950583  1.0000
  O   O2        1.0  0.6369291859155055  0.7118831362458877  0.34347896200051764  1.0000
  O   O3        1.0  0.987308479991043  0.5027831544502988  0.673902815207839  1.0000
  O   O4        1.0  0.15735312819015235  0.4378446345217526  0.7592187651898712  1.0000
  O   O5        1.0  0.1587645879626507  0.7290029959258391  0.22301599838829134  1.0000
  O   O6        1.0  0.5284266171511263  0.7760279597714543  0.7442102771892678  1.0000
  O   O7        1.0  0.9699009831529111  0.43669475335627794  0.9353811135806609  1.0000
  O   O8        1.0  0.04279551067156717  0.939341111574322  0.10510293318657205  1.0000
  O   O9        1.0  0.25185603946010815  0.24006764078512788  0.15557388283195905  1.0000
  O   O10       1.0  0.6541395507738343  0.9990906977909617  0.815913949161768  1.0000
data_image36
_chemical_formula_structural       Sr2Cu2H12O10
_chemical_formula_sum              "Sr2 Cu2 H12 O10"
_cell_length_a       6.296725
_cell_length_b       5.467378000000002
_cell_length_c       7.977295878227032
_cell_angle_alpha    72.20561901156641
_cell_angle_beta     90.0
_cell_angle_gamma    90.0

_space_group_name_H-M_alt    "P 1"
_space_group_IT_number       1

loop_
  _space_group_symop_operation_xyz
  'x, y, z'

loop_
  _atom_site_type_symbol
  _atom_site_label
  _atom_site_symmetry_multiplicity
  _atom_site_fract_x
  _atom_site_fract_y
  _atom_site_fract_z
  _atom_site_occupancy
  Sr  Sr1       1.0  0.792533099767752  0.6488014368223958  0.6533333327242872  1.0000
  Sr  Sr2       1.0  0.09036819072207436  0.9200384101131931  0.8512517463823315  1.0000
  Cu  Cu1       1.0  0.8131357550155371  0.8892257763072848  0.38591324983281083  1.0000
  Cu  Cu2       1.0  0.8937818375998177  0.1362793305888772  0.41529836271911336  1.0000
  H   H1        1.0  0.9065529497456737  0.2364903498091735  0.5179017265327275  1.0000
  H   H2        1.0  0.579670968465507  0.8004087549634278  0.38101652753539383  1.0000
  H   H3        1.0  0.5834222254343331  0.755432428792119  0.8937988082761876  1.0000
  H   H4        1.0  0.7023175749927759  0.1442624507471919  0.878543805796653  1.0000
  H   H5        1.0  0.7834665384143591  0.8774376570363529  0.2803927438799292  1.0000
  H   H6        1.0  0.8368532161111943  0.9318503442045767  0.18441937820171006  1.0000
  H   H7        1.0  0.8228095861850306  0.2564198079962807  0.7921516539354343  1.0000
  H   H8        1.0  0.942946159892017  0.5009676551853772  0.7703178478586779  1.0000
  H   H9        1.0  0.5665097641758621  0.5080343837034889  0.30882482626475394  1.0000
  H   H10       1.0  0.3408283778699115  0.17065872281091288  0.8942238129675388  1.0000
  H   H11       1.0  0.3584307943820022  0.4094654790824279  0.17656793241621926  1.0000
  H   H12       1.0  0.2611099809873849  0.6588025295641273  0.601744697894901  1.0000
  O   O1        1.0  0.8745662367145997  0.8235781307448633  0.470161843666574  1.0000
  O   O2        1.0  0.3683796374243684  0.287632949068211  0.4236730694392463  1.0000
  O   O3        1.0  0.4089778888737783  0.7063334758277051  0.9822726923448499  1.0000
  O   O4        1.0  0.8796258565271273  0.879740854492411  0.9482680088840425  1.0000
  O   O5        1.0  0.3826002184941899  0.3816737058950821  0.4771798088331707  1.0000
  O   O6        1.0  0.9806358687346801  0.6492779976688325  0.0553317278099712  1.0000
  O   O7        1.0  0.9290876410668716  0.028241540538147092  0.37771694161347114  1.0000
  O   O8        1.0  0.6925610107500688  0.7355219789315015  0.9977795306476764  1.0000
  O   O9        1.0  0.23438919983891537  0.8502247082651593  0.5368257120935596  1.0000
  O   O10       1.0  0.28527188397129066  0.3172971301828511  0.8215033075539395  1.0000
data_image37
_chemical_formula_structural       Sr2Cu2H12O10
_chemical_formula_sum              "Sr2 Cu2 H12 O10"
_cell_length_a       6.296725
_cell_length_b       5.467378000000002
_cell_length_c       7.977295878227032
_cell_angle_alpha    72.20561901156641
_cell_angle_beta     90.0
_cell_angle_gamma    90.0

_space_group_name_H-M_alt    "P 1"
_space_group_IT_number       1

loop_
  _space_group_symop_operation_xyz
  'x, y, z'

loop_
  _atom_site_type_symbol
  _atom_site_label
  _atom_site_symmetry_multiplicity
  _atom_site_fract_x
  _atom_site_fract_y
  _atom_site_fract_z
  _atom_site_occupancy
  Sr  Sr1       1.0  0.10254043558961712  0.08715134864905849  0.28749322493968066  1.0000
  Sr  Sr2       1.0  0.44025207369122654  0.2739667823771015  0.12132885339087807  1.0000
  Cu  Cu1       1.0  0.901158718043007  0.5254051379160956  0.9697237858490553  1.0000
  Cu  Cu2       1.0  0.08519819669891149  0.8308419499080628  0.9579640102383564  1.0000
  H   H1        1.0  0.9690006683231331  0.051501885522156954  0.2957793837413192  1.0000
  H   H2        1.0  0.6123778922483325  0.6757523834239691  0.94396828324534  1.0000
  H   H3        1.0  0.18074534472543746  0.629764023819007  0.6857307003228925  1.0000
  H   H4        1.0  0.832890784367919  0.6348997787572443  0.12372814025729895  1.0000
  H   H5        1.0  0.304895575158298  0.3616529988939874  0.9821721371263266  1.0000
  H   H6        1.0  0.20832344287191518  0.6734406627801945  0.7999956736384775  1.0000
  H   H7        1.0  0.2902829656377435  0.4020475884717598  0.11260899333865382  1.0000
  H   H8        1.0  0.7950553761911578  0.15862086982815526  0.49504959108890034  1.0000
  H   H9        1.0  0.7105971034616232  0.9683992676436901  0.7433628248982131  1.0000
  H   H10       1.0  0.7453487269813195  0.20552271197084337  0.5884720546891913  1.0000
  H   H11       1.0  0.027242316718911752  0.6499711866490543  0.8729397440620232  1.0000
  H   H12       1.0  0.6100825667381287  0.47337137535214424  0.4145110994577408  1.0000
  O   O1        1.0  0.8033281015523244  0.29173008701764047  0.4008313083613757  1.0000
  O   O2        1.0  0.39222913268895354  0.14603503386024386  0.19806639744638233  1.0000
  O   O3        1.0  0.2960817798739299  0.4854534447658807  0.9099810049810912  1.0000
  O   O4        1.0  0.22974400606472045  0.5733148173894733  0.40445915947202593  1.0000
  O   O5        1.0  0.5262796602182789  0.05520221912593115  0.5050045948300976  1.0000
  O   O6        1.0  0.1800875556655228  0.7183913295157254  0.6058319642907009  1.0000
  O   O7        1.0  0.21208706148900092  0.7993856547400355  0.9333969451254234  1.0000
  O   O8        1.0  0.21043353423010558  0.9726486561121419  0.37371266132686287  1.0000
  O   O9        1.0  0.12996833058423363  0.05046736334043089  0.8613479283376364  1.0000
  O   O10       1.0  0.3618565372453304  0.30040456919232383  0.7324531328631565  1.0000
data_image38
_chemical_formula_structural       Sr2Cu2H12O10
_chemical_formula_sum              "Sr2 Cu2 H12 O10"
_cell_length_a       6.296725
_cell_length_b       5.467378000000002
_cell_length_c       7.977295878227032
_cell_angle_alpha    72.20561901156641
_cell_angle_beta     90.0
_cell_angle_gamma    90.0

_space_group_name_H-M_alt    "P 1"
_space_group_IT_number       1

loop_
  _space_group_symop_operation_xyz
  'x, y, z'

loop_
  _atom_site_type_symbol
  _atom_site_label
  _atom_site_symmetry_multiplicity
  _atom_site_fract_x
  _atom_site_fract_y
  _atom_site_fract_z
  _atom_site_occupancy
  Sr  Sr1       1.0  0.6529020748857874  0.5705100619525183  0.7751239060453372  1.0000
  Sr  Sr2       1.0  0.13475850055692717  0.5692301173694432  0.028793267643777654  1.0000
  Cu  Cu1       1.0  0.17455073993187398  0.025054902653209865  0.5867778892861679  1.0000
  Cu  Cu2       1.0  0.12207035452593118  0.3700299330521375  0.23252721762037254  1.0000
  H   H1        1.0  0.0625510789686814  0.7783439450722653  0.9914184336084872  1.0000
  H   H2        1.0  0.8362139645032585  0.6040490914601833  0.625206345692277  1.0000
  H   H3        1.0  0.19872060127090663  0.3949384337756783  0.44775968766771257  1.0000
  H   H4        1.0  0.19057539012283087  0.640980388270691  0.7277620732784271  1.0000
  H   H5        1.0  0.9577016080729663  0.7193287788541056  0.25124815676826984  1.0000
  H   H6        1.0  0.42065534699941054  0.6196178594982484  0.6208121973613743  1.0000
  H   H7        1.0  0.4919457462383434  0.49676100428041536  0.9018576082307845  1.0000
  H   H8        1.0  0.81735646026209  0.27016323583666235  0.8460592791525414  1.0000
  H   H9        1.0  0.0906552579253912  0.5020523183047771  0.20086191594600677  1.0000
  H   H10       1.0  0.013211376033723354  0.47668092127423733  0.4597082433756441  1.0000
  H   H11       1.0  0.006642406136961654  0.15702660311944783  0.7764219807286281  1.0000
  H   H12       1.0  0.9748396237846464  0.4174864033702761  0.32981518004089594  1.0000
  O   O1        1.0  0.45231685548787937  0.29882659306167625  0.07013790466589853  1.0000
  O   O2        1.0  0.47447697684401646  0.22925149055663496  0.8385436148164445  1.0000
  O   O3        1.0  0.7697746808407828  0.0874312871019356  0.5718950036680326  1.0000
  O   O4        1.0  0.1299861315637827  0.9875917925965041  0.8267464501550421  1.0000
  O   O5        1.0  0.445927389053395  0.9812413164108875  0.5360929017333547  1.0000
  O   O6        1.0  0.31302461796440184  0.3022847992833704  0.4562842606101185  1.0000
  O   O7        1.0  0.6385548755060881  0.0042564282193779945  0.423074147751322  1.0000
  O   O8        1.0  0.017351830363622867  0.21088957716710865  0.598538535356056  1.0000
  O   O9        1.0  0.47060762238834286  0.5687985002296045  0.24266566556616453  1.0000
  O   O10       1.0  0.15831809480005177  0.147113426879514  0.7986426309216768  1.0000
data_image39
_chemical_formula_structural       Sr2Cu2H12O10
_chemical_formula_sum              "Sr2 Cu2 H12 O10"
_cell_length_a       6.296725
_cell_length_b       5.467378000000002
_cell_length_c       7.977295878227032
_cell_angle_alpha    72.20561901156641
_cell_angle_beta     90.0
_cell_angle_gamma    90.0

_space_group_name_H-M_alt    "P 1"
_space_group_IT_number       1

loop_
  _space_group_symop_operation_xyz
  'x, y, z'

loop_
  _atom_site_type_symbol
  _atom_site_label
  _atom_site_symmetry_multiplicity
  _atom_site_fract_x
  _atom_site_fract_y
  _atom_site_fract_z
  _atom_site_occupancy
  Sr  Sr1       1.0  0.7413401877565775  0.8569240479264408  0.9420631958782906  1.0000
  Sr  Sr2       1.0  0.4906486565596424  0.06332916114479303  0.37803258528583683  1.0000
  Cu  Cu1       1.0  0.4855718129547313  0.4845614074729383  0.15298891448765062  1.0000
  Cu  Cu2       1.0  0.09513484506169334  0.3727319034514949  0.8702766957567292  1.0000
  H   H1        1.0  0.657705083489418  0.7108968434622511  0.0806585003156215  1.0000
  H   H2        1.0  0.23967134510166943  0.026965122437104583  0.11716277105733752  1.0000
  H   H3        1.0  0.6688926086644642  0.035061545902863145  0.2614769088686444  1.0000
  H   H4        1.0  0.03420351818203926  0.3603063924238086  0.35742197977378964  1.0000
  H   H5        1.0  0.3430708802770823  0.36359317394089885  0.4721674248576164  1.0000
  H   H6        1.0  0.3296750723384321  0.16092780235339887  0.3351023492286913  1.0000
  H   H7        1.0  0.32785735954530537  0.4994127170648426  0.2976670141397335  1.0000
  H   H8        1.0  0.7970795140427072  0.6173893628583755  0.4886505629256135  1.0000
  H   H9        1.0  0.7825175740290433  0.014445309760048985  0.2761695794761181  1.0000
  H   H10       1.0  0.8731106342747808  0.4276454316568561  0.3511067465879023  1.0000
  H   H11       1.0  0.9990634975256398  0.6579365571669769  0.15251777973026037  1.0000
  H   H12       1.0  0.5103560551069677  0.4860842314083129  0.17409474030137062  1.0000
  O   O1        1.0  0.3871952897461597  0.11337655794341117  0.6520921011397149  1.0000
  O   O2        1.0  0.5546353303943761  0.0561025338829495  0.8738345049496274  1.0000
  O   O3        1.0  0.49357499880716205  0.41320263844681904  0.5477338720520493  1.0000
  O   O4        1.0  0.2857783269137144  0.010719699203036726  0.40200838237069547  1.0000
  O   O5        1.0  0.46177412374527194  0.6768604208846227  0.19290606846334413  1.0000
  O   O6        1.0  0.30271302734036  0.8100868239998817  0.8899930938205216  1.0000
  O   O7        1.0  0.09322084346786141  0.5883902935311198  0.13086451397975907  1.0000
  O   O8        1.0  0.7333686745114392  0.7186086759902537  0.13950997492065653  1.0000
  O   O9        1.0  0.49190317275497364  0.5134129068464972  0.23911522395064821  1.0000
  O   O10       1.0  0.4698541763718822  0.4561700488557108  0.8375936548691243  1.0000
data_image40
_chemical_formula_structural       Sr2Cu2H12O10
_chemical_formula_sum              "Sr2 Cu2 H12 O10"
_cell_length_a       6.296725
_cell_length_b       5.467378000000002
_cell_length_c       7.977295878227032
_cell_angle_alpha    72.20561901156641
_cell_angle_beta     90.0
_cell_angle_gamma    90.0

_space_group_name_H-M_alt    "P 1"
_space_group_IT_number       1

loop_
  _space_group_symop_operation_xyz
  'x, y, z'

loop_
  _atom_site_type_symbol
  _atom_site_label
  _atom_site_symmetry_multiplicity
  _atom_site_fract_x
  _atom_site_fract_y
  _atom_site_fract_z
  _atom_site_occupancy
  Sr  Sr1       1.0  0.9534308103611693  0.5358534695697017  0.7353580632043304  1.0000
  Sr  Sr2       1.0  0.9778491131146438  0.8522993379738182  0.13241332468169276  1.0000
  Cu  Cu1       1.0  0.16018304030876607  0.006857062049675733  0.8642528373748064  1.0000
  Cu  Cu2       1.0  0.3087032401235774  0.4572129084262997  0.5617924164180295  1.0000
  H   H1        1.0  0.753288165316917  0.023582685156725347  0.8201809832826257  1.0000
  H   H2        1.0  0.31890709791332483  0.44384677545167506  0.853348829317838  1.0000
  H   H3        1.0  0.6569825165206566  0.7114194557070732  0.12106331367976964  1.0000
  H   H4        1.0  0.6683430159464478  0.9555837290827185  0.4181816508062184  1.0000
  H   H5        1.0  0.9657696301583201  0.8898958385398146  0.10921697795856744  1.0000
  H   H6        1.0  0.40211877843830734  0.00562005108804442  0.32044180325465277  1.0000
  H   H7        1.0  0.9234376214444637  0.6655663894489408  0.14394347956113052  1.0000
  H   H8        1.0  0.12484828527158243  0.5903596476127859  0.08038230620149989  1.0000
  H   H9        1.0  0.5223471103236079  0.32997693069046363  0.3962550973519683  1.0000
  H   H10       1.0  0.07457902980968356  0.1948572463588789  0.033909673686139286  1.0000
  H   H11       1.0  0.03132685157470405  0.5654943303670734  0.22301435843110085  1.0000
  H   H12       1.0  0.6705963315907866  0.8951604207977653  0.5689522558823228  1.0000
  O   O1        1.0  0.45283847028622404  0.7254412806360051  0.5094164414331317  1.0000
  O   O2        1.0  0.7545686909434153  0.7914957972243428  0.30320970132015646  1.0000
  O   O3        1.0  0.26667507633101195  0.68259810746531  0.18648251486592926  1.0000
  O   O4        1.0  0.19684478174895048  0.17887736472766846  0.5815906210336834  1.0000
  O   O5        1.0  0.04002748991479166  0.996624397666892  0.028393447282724082  1.0000
  O   O6        1.0  0.4226122385589406  0.35899104410782456  0.8608759460184956  1.0000
  O   O7        1.0  0.45535364432726055  0.21185045083984733  0.2786568143928889  1.0000
  O   O8        1.0  0.660026762081543  0.20732123329071328  0.16885375673882663  1.0000
  O   O9        1.0  0.9698746531139477  0.09744755968858954  0.8248961052449886  1.0000
  O   O10       1.0  0.8900739102027728  0.35555106069659814  0.2790740804048255  1.0000
data_image41
_chemical_formula_structural       Sr2Cu2H12O10
_chemical_formula_sum              "Sr2 Cu2 H12 O10"
_cell_length_a       6.296725
_cell_length_b       5.467378000000002
_cell_length_c       7.977295878227032
_cell_angle_alpha    72.20561901156641
_cell_angle_beta     90.0
_cell_angle_gamma    90.0

_space_group_name_H-M_alt    "P 1"
_space_group_IT_number       1

loop_
  _space_group_symop_operation_xyz
  'x, y, z'

loop_
  _atom_site_type_symbol
  _atom_site_label
  _atom_site_symmetry_multiplicity
  _atom_site_fract_x
  _atom_site_fract_y
  _atom_site_fract_z
  _atom_site_occupancy
  Sr  Sr1       1.0  0.4464577625039965  0.41562357888324186  0.9283456865086919  1.0000
  Sr  Sr2       1.0  0.9087405765312724  0.8634250557224732  0.12624205862812232  1.0000
  Cu  Cu1       1.0  0.27119920146651566  0.42610563209746033  0.738157872314332  1.0000
  Cu  Cu2       1.0  0.42602549615548924  0.9894168411847204  0.30568372140987776  1.0000
  H   H1        1.0  0.4588138515246101  0.7914838999276981  0.06136586202774197  1.0000
  H   H2        1.0  0.9888286956120282  0.13779725250788033  0.5587538806721568  1.0000
  H   H3        1.0  0.5199078517616726  0.575129242031835  0.17685975891072303  1.0000
  H   H4        1.0  0.8269702857360244  0.8937636511400342  0.7202685936354101  1.0000
  H   H5        1.0  0.5777431512251496  0.01029489072971046  0.7588159438455477  1.0000
  H   H6        1.0  0.3897829601773992  0.0017412982415407896  0.12349327257834375  1.0000
  H   H7        1.0  0.03409710433334112  0.535480396472849  0.47049202003108803  1.0000
  H   H8        1.0  0.8335257715298212  0.6181712964025792  0.023146179111790843  1.0000
  H   H9        1.0  0.9670036665629596  0.48114466888364404  0.17627929523587227  1.0000
  H   H10       1.0  0.9619560448918492  0.8665239185793325  0.8340516815660521  1.0000
  H   H11       1.0  0.29281914816237986  0.8666334766894579  0.8150922204367816  1.0000
  H   H12       1.0  0.032769533805549145  0.8788275428814813  0.1652758289128542  1.0000
  O   O1        1.0  0.34281854642904364  0.6989269255718682  0.9463111010554712  1.0000
  O   O2        1.0  0.5070352529801312  0.13897063437616453  0.9271161087526707  1.0000
  O   O3        1.0  0.9169050985947251  0.40014990503550507  0.5130249326175544  1.0000
  O   O4        1.0  0.7658094954676926  0.39163044129963964  0.6395238761324435  1.0000
  O   O5        1.0  0.9413586098526139  0.20837970076900092  0.7801621593098389  1.0000
  O   O6        1.0  0.9076344257919118  0.0872800329234451  0.5968505406490294  1.0000
  O   O7        1.0  0.8002589751267806  0.025657728780061007  0.25980943490867503  1.0000
  O   O8        1.0  0.5242151718848618  0.9945501593174413  0.8266308082966134  1.0000
  O   O9        1.0  0.46133973667019745  0.46449524168565404  0.2786740379233379  1.0000
  O   O10       1.0  0.06018774408221361  0.5649187829112634  0.5712104100966826  1.0000
data_image42
_chemical_formula_structural       Sr2Cu2H12O10
_chemical_formula_sum              "Sr2 Cu2 H12 O10"
_cell_length_a       6.296725
_cell_length_b       5.467378000000002
_cell_length_c       7.977295878227032
_cell_angle_alpha    72.20561901156641
_cell_angle_beta     90.0
_cell_angle_gamma    90.0

_space_group_name_H-M_alt    "P 1"
_space_group_IT_number       1

loop_
  _space_group_symop_operation_xyz
  'x, y, z'

loop_
  _atom_site_type_symbol
  _atom_site_label
  _atom_site_symmetry_multiplicity
  _atom_site_fract_x
  _atom_site_fract_y
  _atom_site_fract_z
  _atom_site_occupancy
  Sr  Sr1       1.0  0.1292057706741616  0.09748721073265187  0.47736417410487775  1.0000
  Sr  Sr2       1.0  0.6211354969418608  0.8239401380706113  0.7235626533947652  1.0000
  Cu  Cu1       1.0  0.06037486856803298  0.07613980170572177  0.9196208481444046  1.0000
  Cu  Cu2       1.0  0.994609083107207  0.6398146593710408  0.8790453888796037  1.0000
  H   H1        1.0  0.8474251179723069  0.8133737044990994  0.6078556369175203  1.0000
  H   H2        1.0  0.8918731827288866  0.5346591360867023  0.6389014404267073  1.0000
  H   H3        1.0  0.2026802696636878  0.47520868212450296  0.7519694698858075  1.0000
  H   H4        1.0  0.9735702276229858  0.45771955139935017  0.7238570423796773  1.0000
  H   H5        1.0  0.8778338180854917  0.8245494069124106  0.12328197614988312  1.0000
  H   H6        1.0  0.40947900124592707  0.32400394630167284  0.4734159801155329  1.0000
  H   H7        1.0  0.9346421479713172  0.9685025265207514  0.7220045669091633  1.0000
  H   H8        1.0  0.9429460031969938  0.5682398901553825  0.9267173879488837  1.0000
  H   H9        1.0  0.009745569434016943  0.6671477840282023  0.4158550654537976  1.0000
  H   H10       1.0  0.9516421752050519  0.26671111333416775  0.1779457099037245  1.0000
  H   H11       1.0  0.8760907258838415  0.14191170199774206  0.11223159614019096  1.0000
  H   H12       1.0  0.32482018088921905  0.08618948346702382  0.028515605721622705  1.0000
  O   O1        1.0  0.3363386340206489  0.7499162961321417  0.12868431469541974  1.0000
  O   O2        1.0  0.39488516561323195  0.03610185126308352  0.14022058752016164  1.0000
  O   O3        1.0  0.25009271322051063  0.611089934798656  0.20501307724043727  1.0000
  O   O4        1.0  0.797634361544624  0.09450424578972161  0.39400383981410414  1.0000
  O   O5        1.0  0.05961374254547991  0.08677240231918404  0.6108635825148667  1.0000
  O   O6        1.0  0.022600630531087518  0.41083910362794995  0.8398747837927658  1.0000
  O   O7        1.0  0.39889955485705286  0.4370138682425022  0.9055083155399188  1.0000
  O   O8        1.0  0.7207747431348253  0.8159521076595411  0.2038871324621141  1.0000
  O   O9        1.0  0.7391798731332528  0.020715610284241848  0.598837963094411  1.0000
  O   O10       1.0  0.29050636374449823  0.6976907083299011  0.2701688417000696  1.0000
data_image43
_chemical_formula_structural       Sr2Cu2H12O10
_chemical_formula_sum              "Sr2 Cu2 H12 O10"
_cell_length_a       6.296725
_cell_length_b       5.467378000000002
_cell_length_c       7.977295878227032
_cell_angle_alpha    72.20561901156641
_cell_angle_beta     90.0
_cell_angle_gamma    90.0

_space_group_name_H-M_alt    "P 1"
_space_group_IT_number       1

loop_
  _space_group_symop_operation_xyz
  'x, y, z'

loop_
  _atom_site_type_symbol
  _atom_site_label
  _atom_site_symmetry_multiplicity
  _atom_site_fract_x
  _atom_site_fract_y
  _atom_site_fract_z
  _atom_site_occupancy
  Sr  Sr1       1.0  0.6966298141051084  0.37062442032038234  0.978607456854661  1.0000
  Sr  Sr2       1.0  0.5735347559093498  0.3604259616113268  0.35313521638454404  1.0000
  Cu  Cu1       1.0  0.44701984128914773  0.4650396062643267  0.011024494975572452  1.0000
  Cu  Cu2       1.0  0.3165029847295955  0.9663525486830622  0.2471807436522795  1.0000
  H   H1        1.0  0.7441985287587158  0.5732961868052371  0.773351457552053  1.0000
  H   H2        1.0  0.6705208197236061  0.2142482486087829  0.0007811486721038818  1.0000
  H   H3        1.0  0.8818651011097245  0.24634375562891364  0.5394390166620724  1.0000
  H   H4        1.0  0.8158544446341693  0.11147052817977965  0.9422906548716128  1.0000
  H   H5        1.0  0.05123366031330079  0.06094935073633678  0.9679454323486425  1.0000
  H   H6        1.0  0.35615410101308953  0.5700619517592713  0.110942353727296  1.0000
  H   H7        1.0  0.9051479861373082  0.7174125293968245  0.8692310540645849  1.0000
  H   H8        1.0  0.1794842515955679  0.1783393177029211  0.876652210688917  1.0000
  H   H9        1.0  0.8352784339804202  0.5751230637542903  0.9020196790806949  1.0000
  H   H10       1.0  0.782303519314155  0.6350705636432394  0.21156729117501527  1.0000
  H   H11       1.0  0.7335295327939093  0.9197910517686978  0.15119154658168554  1.0000
  H   H12       1.0  0.04213263839483261  0.6131477964518126  0.11339455237612128  1.0000
  O   O1        1.0  0.3629787057870999  0.6238749786862172  0.8321441647422034  1.0000
  O   O2        1.0  0.8532562252703428  0.24179044959601015  0.836643163318513  1.0000
  O   O3        1.0  0.271108208631631  0.8544489479390904  0.45807186802267097  1.0000
  O   O4        1.0  0.5956205152906477  0.021785158896818757  0.3500644195592031  1.0000
  O   O5        1.0  0.30378135944192763  0.7923740573314717  0.4145935667456797  1.0000
  O   O6        1.0  0.855706749833189  0.17357346159406006  0.7853999898798065  1.0000
  O   O7        1.0  0.40639610739890486  0.266508812783286  0.10906508169136941  1.0000
  O   O8        1.0  0.8464768787180219  0.8501688678516075  0.32983802596572787  1.0000
  O   O9        1.0  0.6175424201719579  0.22393247396394145  0.2558201507126796  1.0000
  O   O10       1.0  0.6273526789373136  0.0071053741266950965  0.3496851046802476  1.0000
data_image44
_chemical_formula_structural       Sr2Cu2H12O10
_chemical_formula_sum              "Sr2 Cu2 H12 O10"
_cell_length_a       6.296725
_cell_length_b       5.467378000000002
_cell_length_c       7.977295878227032
_cell_angle_alpha    72.20561901156641
_cell_angle_beta     90.0
_cell_angle_gamma    90.0

_space_group_name_H-M_alt    "P 1"
_space_group_IT_number       1

loop_
  _space_group_symop_operation_xyz
  'x, y, z'

loop_
  _atom_site_type_symbol
  _atom_site_label
  _atom_site_symmetry_multiplicity
  _atom_site_fract_x
  _atom_site_fract_y
  _atom_site_fract_z
  _atom_site_occupancy
  Sr  Sr1       1.0  0.947226356191095  0.8819640608271584  0.6483948674722342  1.0000
  Sr  Sr2       1.0  0.11917514546075836  0.7807589631702285  0.7089197798050009  1.0000
  Cu  Cu1       1.0  0.3127617894206196  0.15853021485963836  0.23957834183238447  1.0000
  Cu  Cu2       1.0  0.6514385261107236  0.4747568884631619  0.7963147214468336  1.0000
  H   H1        1.0  0.01679552730638534  0.13225646904902533  0.5487269546720199  1.0000
  H   H2        1.0  0.015313568292185664  0.5143482112325728  0.9688318059779704  1.0000
  H   H3        1.0  0.3536851358949207  0.835158227942884  0.06747978122439235  1.0000
  H   H4        1.0  0.2749641565605998  0.2195769753307104  0.7567604794166982  1.0000
  H   H5        1.0  0.9779783221893013  0.170480528002372  0.10764157422818244  1.0000
  H   H6        1.0  0.8138401761825662  0.4686142592690885  0.8854610682465136  1.0000
  H   H7        1.0  0.8649803717853501  0.5087017847690731  0.7351837679598248  1.0000
  H   H8        1.0  0.6324240000685677  0.1483097005111631  0.9155133121821564  1.0000
  H   H9        1.0  0.6630045510828495  0.2755081250797957  0.35135833034291863  1.0000
  H   H10       1.0  0.7557307393290102  0.28108968073502183  0.19041985750664026  1.0000
  H   H11       1.0  0.9390794024802744  0.653489829855971  0.014501734869554639  1.0000
  H   H12       1.0  0.6426191506907344  0.08160603759461083  0.8327595042064786  1.0000
  O   O1        1.0  0.6124841342971195  0.7934644519991707  0.6621025730855763  1.0000
  O   O2        1.0  0.7266042321080022  0.03233009803807363  0.9142030605871696  1.0000
  O   O3        1.0  0.08156671840697527  0.09129812492756173  0.354936107120011  1.0000
  O   O4        1.0  0.4580571841215715  0.8273753863759339  0.20858631923329085  1.0000
  O   O5        1.0  0.8211551252752542  0.5913901688836631  0.5191968635062949  1.0000
  O   O6        1.0  0.8070994729641825  0.581381990108639  0.27571690879995003  1.0000
  O   O7        1.0  0.9729397936025634  0.5787863014265895  0.6739914047939237  1.0000
  O   O8        1.0  0.7784304903761949  0.033365435898303986  0.2236065393080935  1.0000
  O   O9        1.0  0.9528880939615192  0.4265463488554815  0.7553595999488607  1.0000
  O   O10       1.0  0.5704582822218072  0.17594940261915326  0.21522711240686476  1.0000
data_image45
_chemical_formula_structural       Sr2Cu2H12O10
_chemical_formula_sum              "Sr2 Cu2 H12 O10"
_cell_length_a       6.296725
_cell_length_b       5.467378000000002
_cell_length_c       7.977295878227032
_cell_angle_alpha    72.20561901156641
_cell_angle_beta     90.0
_cell_angle_gamma    90.0

_space_group_name_H-M_alt    "P 1"
_space_group_IT_number       1

loop_
  _space_group_symop_operation_xyz
  'x, y, z'

loop_
  _atom_site_type_symbol
  _atom_site_label
  _atom_site_symmetry_multiplicity
  _atom_site_fract_x
  _atom_site_fract_y
  _atom_site_fract_z
  _atom_site_occupancy
  Sr  Sr1       1.0  0.24136607311083935  0.04148218233603984  0.3426423233177047  1.0000
  Sr  Sr2       1.0  0.5283227101899683  0.6939376982918475  0.4360707871383056  1.0000
  Cu  Cu1       1.0  0.889651125879027  0.59608960832702  0.7019983717545983  1.0000
  Cu  Cu2       1.0  0.42588051222264767  0.6933884165482596  0.8090981151617598  1.0000
  H   H1        1.0  0.7515177461318672  0.6297228760668077  0.18938690618961118  1.0000
  H   H2        1.0  0.27895748568698764  0.6594464213121682  0.10710400203242898  1.0000
  H   H3        1.0  0.717250652029179  0.4561708979308605  0.5255080694332719  1.0000
  H   H4        1.0  0.4184416369535029  0.859491212759167  0.7115150946192443  1.0000
  H   H5        1.0  0.4399667684920132  0.4190703223575838  0.42756865452975035  1.0000
  H   H6        1.0  0.9799294551485218  0.963971633114852  0.9449997029732913  1.0000
  H   H7        1.0  0.6011704403208569  0.6366259050555527  0.8924394632922485  1.0000
  H   H8        1.0  0.2596232274954673  0.08032919676043093  0.6339186862751376  1.0000
  H   H9        1.0  0.13073114049620926  0.1896586783695966  0.5967118549160659  1.0000
  H   H10       1.0  0.36369845177978277  0.13570237415842712  0.6507156537845731  1.0000
  H   H11       1.0  0.756651024799794  0.6404464291408658  0.5584034882485867  1.0000
  H   H12       1.0  0.30102087231352925  0.02659877247060649  0.8567050625570118  1.0000
  O   O1        1.0  0.8156216912029777  0.6757328410167247  0.3284784974239301  1.0000
  O   O2        1.0  0.3625398621225031  0.191078954085242  0.8022298549039988  1.0000
  O   O3        1.0  0.9629028326598927  0.834450547612505  0.007386935263639316  1.0000
  O   O4        1.0  0.08232814772054553  0.5923653893405572  0.22957919572945684  1.0000
  O   O5        1.0  0.8354043073486537  0.9537305909470888  0.8127394626535533  1.0000
  O   O6        1.0  0.5605964364949614  0.5387436549644917  0.11124731512973085  1.0000
  O   O7        1.0  0.6819027530727908  0.6773823557887226  0.9214048786379863  1.0000
  O   O8        1.0  0.529984738946041  0.061489523272030056  0.6798331352183595  1.0000
  O   O9        1.0  0.27136208151932806  0.43819638204877265  0.10008268812089227  1.0000
  O   O10       1.0  0.6223849786110804  0.8958016393007711  0.21703433827497065  1.0000
data_image46
_chemical_formula_structural       Sr2Cu2H12O10
_chemical_formula_sum              "Sr2 Cu2 H12 O10"
_cell_length_a       6.296725
_cell_length_b       5.467378000000002
_cell_length_c       7.977295878227032
_cell_angle_alpha    72.20561901156641
_cell_angle_beta     90.0
_cell_angle_gamma    90.0

_space_group_name_H-M_alt    "P 1"
_space_group_IT_number       1

loop_
  _space_group_symop_operation_xyz
  'x, y, z'

loop_
  _atom_site_type_symbol
  _atom_site_label
  _atom_site_symmetry_multiplicity
  _atom_site_fract_x
  _atom_site_fract_y
  _atom_site_fract_z
  _atom_site_occupancy
  Sr  Sr1       1.0  0.5787560273020063  0.5414739813422784  0.9960918659198796  1.0000
  Sr  Sr2       1.0  0.5560260605416261  0.4170738694665488  0.7521968397777528  1.0000
  Cu  Cu1       1.0  0.6619377379538491  0.30946568911895156  0.08427161587678711  1.0000
  Cu  Cu2       1.0  0.989628226030618  0.2716435387264937  0.7754162559576798  1.0000
  H   H1        1.0  0.15164042328251526  0.9951578647596762  0.6201737796654925  1.0000
  H   H2        1.0  0.44824982970021665  0.15934363077394664  0.10640656296163797  1.0000
  H   H3        1.0  0.12741065147565678  0.5762123421300203  0.8577054637717083  1.0000
  H   H4        1.0  0.2647345447912812  0.7482065036892891  0.8324595876038074  1.0000
  H   H5        1.0  0.27851711492985487  0.23504733497975394  0.5027949510840699  1.0000
  H   H6        1.0  0.3920626037288457  0.3860899953870103  0.252509230049327  1.0000
  H   H7        1.0  0.328066322254017  0.9120061798021197  0.43100986622448545  1.0000
  H   H8        1.0  0.4874898650450632  0.6598358509945683  0.0773641943524126  1.0000
  H   H9        1.0  0.4800547102931887  0.8209855558816344  0.9929710105061531  1.0000
  H   H10       1.0  0.6988297505304217  0.8455661499174312  0.855548647698015  1.0000
  H   H11       1.0  0.5641172197647393  0.04945332260103896  0.26496263197623193  1.0000
  H   H12       1.0  0.6731369653716683  0.7404845833661966  0.41601990163326263  1.0000
  O   O1        1.0  0.9765741562587209  0.08267380084726028  0.0468078104313463  1.0000
  O   O2        1.0  0.6844810331185727  0.25268755218712613  0.03623689300729893  1.0000
  O   O3        1.0  0.7363493695156649  0.028499654872575775  0.7015794114558958  1.0000
  O   O4        1.0  0.03142731206025928  0.42794825870078057  0.7775405128486454  1.0000
  O   O5        1.0  0.713997188518988  0.01675671608245466  0.9118761973404617  1.0000
  O   O6        1.0  0.163195249857381  0.23300235182978213  0.8409672522102483  1.0000
  O   O7        1.0  0.9286738202208653  0.9121281376574188  0.4784438168280758  1.0000
  O   O8        1.0  0.27300051587008056  0.7966625000117347  0.7345933875767514  1.0000
  O   O9        1.0  0.8750983297795756  0.634624572339817  0.3010679277649615  1.0000
  O   O10       1.0  0.3467114054074045  0.8948027909500524  0.44745664030779153  1.0000
data_image47
_chemical_formula_structural       Sr2Cu2H12O10
_chemical_formula_sum              "Sr2 Cu2 H12 O10"
_cell_length_a       6.296725
_cell_length_b       5.467378000000002
_cell_length_c       7.977295878227032
_cell_angle_alpha    72.20561901156641
_cell_angle_beta     90.0
_cell_angle_gamma    90.0

_space_group_name_H-M_alt    "P 1"
_space_group_IT_number       1

loop_
  _space_group_symop_operation_xyz
  'x, y, z'

loop_
  _atom_site_type_symbol
  _atom_site_label
  _atom_site_symmetry_multiplicity
  _atom_site_fract_x
  _atom_site_fract_y
  _atom_site_fract_z
  _atom_site_occupancy
  Sr  Sr1       1.0  0.08529043951421045  0.0064442701113875955  0.17164751529344358  1.0000
  Sr  Sr2       1.0  0.8023150626686402  0.9620280446542893  0.412184487489867  1.0000
  Cu  Cu1       1.0  0.04960372648201883  0.5885279197245836  0.5150498003713437  1.0000
  Cu  Cu2       1.0  0.008216850343160331  0.12397426040843129  0.3491237003036076  1.0000
  H   H1        1.0  0.15289594052592292  0.9502593601937406  0.33716662181541324  1.0000
  H   H2        1.0  0.35673020500689745  0.05039884313009679  0.821979514323175  1.0000
  H   H3        1.0  0.36199991291505285  0.8068032797891647  0.9857605923898518  1.0000
  H   H4        1.0  0.10096886800602078  0.9501265459693968  0.3221158813685179  1.0000
  H   H5        1.0  0.04191954992711544  0.7870983438042458  0.8623553471406922  1.0000
  H   H6        1.0  0.5331874479888938  0.8983613199088722  0.2115118100773543  1.0000
  H   H7        1.0  0.3157876387704164  0.6705783964134753  0.7396850311779417  1.0000
  H   H8        1.0  0.055537433945573866  0.7414436245453544  0.67589073968702  1.0000
  H   H9        1.0  0.9419595759827644  0.8208464849740267  0.411355403251946  1.0000
  H   H10       1.0  0.07124072127044201  0.15259787428658456  0.4151730096200481  1.0000
  H   H11       1.0  0.39181266562081873  0.2625349723966792  0.7963664529379457  1.0000
  H   H12       1.0  0.4297670857049525  0.020655132364481688  0.8491118689998984  1.0000
  O   O1        1.0  0.039374178188154474  0.35300362069392577  0.560017992334906  1.0000
  O   O2        1.0  0.45266991317112115  0.1105709825642407  0.4733803512499435  1.0000
  O   O3        1.0  0.1011277471552603  0.2869087809813209  0.28316173277562484  1.0000
  O   O4        1.0  0.5571131454780698  0.2143470428418368  0.8492438388057053  1.0000
  O   O5        1.0  0.4966314754274208  0.6470867316238582  0.5946650084915746  1.0000
  O   O6        1.0  0.814657059381716  0.3237661581952125  0.33988608280196786  1.0000
  O   O7        1.0  0.19891238037962466  0.08192860102280974  0.7705456804251298  1.0000
  O   O8        1.0  0.11792674815933424  0.46135729597881436  0.7910949577344581  1.0000
  O   O9        1.0  0.2922220065011061  0.14084853026724886  0.4135820755036548  1.0000
  O   O10       1.0  0.04487479327508481  0.5285281807300635  0.42271370464004576  1.0000
data_image48
_chemical_formula_structural       Sr2Cu2H12O10
_chemical_formula_sum              "Sr2 Cu2 H12 O10"
_cell_length_a       6.296725
_cell_length_b       5.467378000000002
_cell_length_c       7.977295878227032
_cell_angle_alpha    72.20561901156641
_cell_angle_beta     90.0
_cell_angle_gamma    90.0

_space_group_name_H-M_alt    "P 1"
_space_group_IT_number       1

loop_
  _space_group_symop_operation_xyz
  'x, y, z'

loop_
  _atom_site_type_symbol
  _atom_site_label
  _atom_site_symmetry_multiplicity
  _atom_site_fract_x
  _atom_site_fract_y
  _atom_site_fract_z
  _atom_site_occupancy
  Sr  Sr1       1.0  0.6739711618574802  0.11908558796858415  0.7295377797418041  1.0000
  Sr  Sr2       1.0  0.7936733638052829  0.2275055352365598  0.08336290945590008  1.0000
  Cu  Cu1       1.0  0.035232697846367955  0.21037961909314618  0.46527206985774683  1.0000
  Cu  Cu2       1.0  0.11500673228874803  0.5509626328712329  0.14895658327441197  1.0000
  H   H1        1.0  0.3566703362739645  0.3248095059534535  0.6359640989685431  1.0000
  H   H2        1.0  0.49744398798793554  0.10662609781138599  0.7466557351872325  1.0000
  H   H3        1.0  0.06391797156538814  0.3109562962781638  0.32351067231502384  1.0000
  H   H4        1.0  0.17696072533726692  0.5719831730239093  0.49451886350288987  1.0000
  H   H5        1.0  0.45390356855932623  0.6774535213480704  0.1678604162298143  1.0000
  H   H6        1.0  0.9098185009206645  0.1959294652333483  0.7953894168604165  1.0000
  H   H7        1.0  0.34215162647888064  0.30555350868962705  0.8659262597648194  1.0000
  H   H8        1.0  0.772438327956479  0.37147912045475096  0.4031069952470716  1.0000
  H   H9        1.0  0.09928397531621158  0.974042882095091  0.6082638232037425  1.0000
  H   H10       1.0  0.4561822897521779  0.4645367198390886  0.17215143772773445  1.0000
  H   H11       1.0  0.030710634775459766  0.6661474129650742  0.007721215253695846  1.0000
  H   H12       1.0  0.8941781600005925  0.11705880449153483  0.2833811556920409  1.0000
  O   O1        1.0  0.9248440084629692  0.17030936575611122  0.0035141378175467253  1.0000
  O   O2        1.0  0.9624738438906206  0.0028466906514950097  0.508771977838478  1.0000
  O   O3        1.0  0.9843797915382311  0.9678570817632135  0.17122881193063222  1.0000
  O   O4        1.0  0.7469225045060739  0.038584109279327095  0.44985064887441695  1.0000
  O   O5        1.0  0.8954969187616371  0.8968038047896698  0.47292185387777863  1.0000
  O   O6        1.0  0.10788067255634815  0.5707357639912516  0.17498360565514304  1.0000
  O   O7        1.0  0.6956809480907395  0.8718742448836565  0.11205216494272463  1.0000
  O   O8        1.0  0.7890549234220998  0.3711756730917841  0.5691007262794301  1.0000
  O   O9        1.0  0.35481541931949323  0.6921212707384257  0.8461450011018314  1.0000
  O   O10       1.0  0.7463328114899923  0.5659211980528198  0.914658886496909  1.0000
data_image49
_chemical_formula_structural       Sr2Cu2H12O10
_chemical_formula_sum              "Sr2 Cu2 H12 O10"
_cell_length_a       6.296725
_cell_length_b       5.467378000000002
_cell_length_c       7.977295878227032
_cell_angle_alpha    72.20561901156641
_cell_angle_beta     90.0
_cell_angle_gamma    90.0

_space_group_name_H-M_alt    "P 1"
_space_group_IT_number       1

loop_
  _space_group_symop_operation_xyz
  'x, y, z'

loop_
  _atom_site_type_symbol
  _atom_site_label
  _atom_site_symmetry_multiplicity
  _atom_site_fract_x
  _atom_site_fract_y
  _atom_site_fract_z
  _atom_site_occupancy
  Sr  Sr1       1.0  0.31742707797093317  0.327370323066134  0.6947535916260676  1.0000
  Sr  Sr2       1.0  0.6476569756632671  0.0045892930356785655  0.33501647869707085  1.0000
  Cu  Cu1       1.0  0.06535704468842596  0.21494686289224774  0.08455535598477582  1.0000
  Cu  Cu2       1.0  0.6900200001546182  0.1807082206942141  0.6149106560478685  1.0000
  H   H1        1.0  0.7759459486114793  0.0625759344547987  0.4712674295587931  1.0000
  H   H2        1.0  0.9653414988424629  0.9872123734094203  0.031489693094044924  1.0000
  H   H3        1.0  0.4342829055385664  0.1770411579636857  0.7941114603308961  1.0000
  H   H4        1.0  0.5282791764475405  0.8022777747828513  0.9457412105984986  1.0000
  H   H5        1.0  0.5663746625650674  0.07259338058065623  0.6125457839807495  1.0000
  H   H6        1.0  0.19932503695599735  0.6255168656352907  0.10921047604642808  1.0000
  H   H7        1.0  0.12051953747868538  0.46649817866273224  0.25508625502698123  1.0000
  H   H8        1.0  0.37966784415766597  0.14543507003691047  0.2031453369418159  1.0000
  H   H9        1.0  0.8748573802877218  0.6365381171926856  0.7939987694844604  1.0000
  H   H10       1.0  0.7274215031648055  0.7795339700533077  0.4309114539064467  1.0000
  H   H11       1.0  0.6110883466899395  0.7958111114567146  0.3249412579461932  1.0000
  H   H12       1.0  0.6225065118633211  0.5602708180376794  0.6648891367949545  1.0000
  O   O1        1.0  0.8180166850797832  0.06092443779925816  0.8392712699715048  1.0000
  O   O2        1.0  0.8601913694146788  0.512725051434245  0.4510950930416584  1.0000
  O   O3        1.0  0.9199100260739215  0.5139328278019093  0.8355833288806025  1.0000
  O   O4        1.0  0.8203783620847389  0.06589142337907106  0.6133284420939162  1.0000
  O   O5        1.0  0.4947535774845164  0.5614488312203321  0.06591463763470529  1.0000
  O   O6        1.0  0.7890318131539971  0.38952286960557103  0.7013182892405894  1.0000
  O   O7        1.0  0.7324901032843627  0.901230858406052  0.008951976080425084  1.0000
  O   O8        1.0  0.4381722248326696  0.27610664267558604  0.050580660230480134  1.0000
  O   O9        1.0  0.610721679739072  0.6259874824172584  0.9522258813594817  1.0000
  O   O10       1.0  0.5889958082916564  0.5390999671653844  0.1995338505366817  1.0000
data_image50
_chemical_formula_structural       Sr2Cu2H12O10
_chemical_formula_sum              "Sr2 Cu2 H12 O10"
_cell_length_a       6.296725
_cell_length_b       5.467378000000002
_cell_length_c       7.977295878227032
_cell_angle_alpha    72.20561901156641
_cell_angle_beta     90.0
_cell_angle_gamma    90.0

_space_group_name_H-M_alt    "P 1"
_space_group_IT_number       1

loop_
  _space_group_symop_operation_xyz
  'x, y, z'

loop_
  _atom_site_type_symbol
  _atom_site_label
  _atom_site_symmetry_multiplicity
  _atom_site_fract_x
  _atom_site_fract_y
  _atom_site_fract_z
  _atom_site_occupancy
  Sr  Sr1       1.0  0.6392149560851976  0.4379133813781664  0.5810123247501906  1.0000
  Sr  Sr2       1.0  0.6486173416487873  0.4605647185817361  0.06493529834551737  1.0000
  Cu  Cu1       1.0  0.3038162672892213  0.004830726247746497  0.30907105157893966  1.0000
  Cu  Cu2       1.0  0.9655425464152358  0.5144771931227297  0.33041794907023814  1.0000
  H   H1        1.0  0.21169512876076624  0.0801539919921197  0.4689401458890643  1.0000
  H   H2        1.0  0.6470358443912119  0.1549942425917834  0.8112082839943469  1.0000
  H   H3        1.0  0.571830773493275  0.8846932360902429  0.7965731292497367  1.0000
  H   H4        1.0  0.8488394734449685  0.23366141319274902  0.8432883666828275  1.0000
  H   H5        1.0  0.49291821476072073  0.32064394908957183  0.37474168045446277  1.0000
  H   H6        1.0  0.8527588920551352  0.9377189290244132  0.27924709767103195  1.0000
  H   H7        1.0  0.1518479180522263  0.23028530302690342  0.3206155191437574  1.0000
  H   H8        1.0  0.3250917575205676  0.7713909041485749  0.06824526854325086  1.0000
  H   H9        1.0  0.2577714226208627  0.327192644122988  0.38377720583230257  1.0000
  H   H10       1.0  0.4030854779994115  0.3802214388269931  0.4320679106749594  1.0000
  H   H11       1.0  0.2893980066291988  0.006521882954984903  0.3350528471637517  1.0000
  H   H12       1.0  0.14621353708207607  0.5483929314650595  0.8933376856148243  1.0000
  O   O1        1.0  0.14553851008531637  0.5292325118498411  0.5992312344606034  1.0000
  O   O2        1.0  0.17989384925022023  0.13806713611120358  0.9391538641648367  1.0000
  O   O3        1.0  0.10470507928403094  0.6850176883745007  0.44323687310679816  1.0000
  O   O4        1.0  0.29094685649033636  0.9633957330370322  0.6544451443478465  1.0000
  O   O5        1.0  0.020026002632221207  0.10264959209598601  0.900642289325333  1.0000
  O   O6        1.0  0.666147063835524  0.5023085796274245  0.8671083322551567  1.0000
  O   O7        1.0  0.590769994771108  0.002027318114414811  0.923105878973729  1.0000
  O   O8        1.0  0.5805275679158513  0.6093756629852578  0.3592881846707314  1.0000
  O   O9        1.0  0.8335454191255849  0.06731953569396865  0.36541902439057594  1.0000
  O   O10       1.0  0.9342380227681133  0.7870090833166614  0.6478899637004361  1.0000
data_image51
_chemical_formula_structural       Sr2Cu2H12O10
_chemical_formula_sum              "Sr2 Cu2 H12 O10"
_cell_length_a       6.296725
_cell_length_b       5.467378000000002
_cell_length_c       7.977295878227032
_cell_angle_alpha    72.20561901156641
_cell_angle_beta     90.0
_cell_angle_gamma    90.0

_space_group_name_H-M_alt    "P 1"
_space_group_IT_number       1

loop_
  _space_group_symop_operation_xyz
  'x, y, z'

loop_
  _atom_site_type_symbol
  _atom_site_label
  _atom_site_symmetry_multiplicity
  _atom_site_fract_x
  _atom_site_fract_y
  _atom_site_fract_z
  _atom_site_occupancy
  Sr  Sr1       1.0  0.6320769725716673  0.7787748110131361  0.21456783142639324  1.0000
  Sr  Sr2       1.0  0.4750441258074716  0.21072986102080904  0.7412349142105086  1.0000
  Cu  Cu1       1.0  0.39694934780709445  0.2770946719683707  0.823665740845172  1.0000
  Cu  Cu2       1.0  0.809206623933278  0.5043910357635468  0.3268042620718461  1.0000
  H   H1        1.0  0.5964303389773704  0.3848436662228778  0.8635878572968068  1.0000
  H   H2        1.0  0.12303908079047687  0.10714374901726842  0.9626716342754662  1.0000
  H   H3        1.0  0.3381529244070407  0.4383237920701504  0.23840014613233507  1.0000
  H   H4        1.0  0.5725005930289626  0.9636399920564145  0.13795460062101483  1.0000
  H   H5        1.0  0.10689018596895039  0.4620576787274331  0.8501008513849229  1.0000
  H   H6        1.0  0.8787053418345749  0.9433154338039458  0.49575355648994446  1.0000
  H   H7        1.0  0.6990813275333494  0.5873678936623037  0.8988360008224845  1.0000
  H   H8        1.0  0.941794891259633  0.6655703377909958  0.3125840689353936  1.0000
  H   H9        1.0  0.03683206159621477  0.0545067711500451  0.4165435088798404  1.0000
  H   H10       1.0  0.8206954566994682  0.7652167374035344  0.4978898038389161  1.0000
  H   H11       1.0  0.10175106790848076  0.9829177652718499  0.539826676947996  1.0000
  H   H12       1.0  0.6732012578286231  0.6986035261070356  0.5305036101490259  1.0000
  O   O1        1.0  0.8774357723013964  0.9145696102641523  0.5873608378460631  1.0000
  O   O2        1.0  0.7737439045013161  0.013955246773548424  0.48669149467605166  1.0000
  O   O3        1.0  0.4209492062800564  0.7786251040815841  0.1460163318843115  1.0000
  O   O4        1.0  0.3433285679202527  0.11813758476637304  0.6712210461264476  1.0000
  O   O5        1.0  0.7696962201152928  0.5244098431430757  0.8269510629734214  1.0000
  O   O6        1.0  0.6143483094638214  0.12873931741341949  0.23548851293162443  1.0000
  O   O7        1.0  0.16400616778992116  0.09224366513080895  0.6391029695114412  1.0000
  O   O8        1.0  0.8495052887592465  0.10235945717431605  0.3983599526109174  1.0000
  O   O9        1.0  0.18826069598435424  0.7309527805773541  0.8158301190123893  1.0000
  O   O10       1.0  0.5033544463803992  0.5667176919523627  0.05565797898452729  1.0000
data_image52
_chemical_formula_structural       Sr2Cu2H12O10
_chemical_formula_sum              "Sr2 Cu2 H12 O10"
_cell_length_a       6.296725
_cell_length_b       5.467378000000002
_cell_length_c       7.977295878227032
_cell_angle_alpha    72.20561901156641
_cell_angle_beta     90.0
_cell_angle_gamma    90.0

_space_group_name_H-M_alt    "P 1"
_space_group_IT_number       1

loop_
  _space_group_symop_operation_xyz
  'x, y, z'

loop_
  _atom_site_type_symbol
  _atom_site_label
  _atom_site_symmetry_multiplicity
  _atom_site_fract_x
  _atom_site_fract_y
  _atom_site_fract_z
  _atom_site_occupancy
  Sr  Sr1       1.0  0.7521722983801737  0.6051922908809502  0.17737093512550928  1.0000
  Sr  Sr2       1.0  0.6656120505649596  0.9024713568796869  0.7381934339209693  1.0000
  Cu  Cu1       1.0  0.4833586663007736  0.3112729110289365  0.08203545508149546  1.0000
  Cu  Cu2       1.0  0.7618018710054457  0.6150108501315117  0.21322907239505184  1.0000
  H   H1        1.0  0.8519084192812443  0.6789708870928735  0.917331829739851  1.0000
  H   H2        1.0  0.8478582396637648  0.09381021256558597  0.09980303002521396  1.0000
  H   H3        1.0  0.7392167017551401  0.9780376181006432  0.44544412987306714  1.0000
  H   H4        1.0  0.195053874514997  0.13269270909950137  0.17457086220383644  1.0000
  H   H5        1.0  0.08636395435314626  0.9648094736039639  0.29182787286117673  1.0000
  H   H6        1.0  0.08267992455512285  0.19116463419049978  0.09638043818995357  1.0000
  H   H7        1.0  0.6993019983638078  0.15796103212051094  0.40349539306771476  1.0000
  H   H8        1.0  0.1825341983931139  0.44292715401388705  0.03641237615374848  1.0000
  H   H9        1.0  0.4027502110693604  0.8593624719651416  0.24688607593998313  1.0000
  H   H10       1.0  0.02227526973001659  0.30652440269477665  0.4802759044105187  1.0000
  H   H11       1.0  0.1967181672807783  0.0640708573628217  0.5469311601482332  1.0000
  H   H12       1.0  0.4588178498670459  0.3615643144585192  0.7656526598148048  1.0000
  O   O1        1.0  0.33559546622564085  0.5080250457685906  0.8977938509779051  1.0000
  O   O2        1.0  0.32070393046888057  0.7287121975678019  0.6754265724739525  1.0000
  O   O3        1.0  0.02611851808615029  0.986220891441917  0.39973929442930967  1.0000
  O   O4        1.0  0.19667871890123934  0.08466208877507597  0.7195702131139114  1.0000
  O   O5        1.0  0.8715913521591574  0.9964127875864506  0.06611070309554634  1.0000
  O   O6        1.0  0.06883334589656442  0.22776631382294  0.8310928485298064  1.0000
  O   O7        1.0  0.4342635103967041  0.586519880220294  0.5599216721457196  1.0000
  O   O8        1.0  0.4509878222597763  0.7206420791335404  0.28841969289351255  1.0000
  O   O9        1.0  0.2766004959921702  0.42229139870323706  0.20377436297712848  1.0000
  O   O10       1.0  0.8649563372673583  0.17835900565842167  0.5406750820111483  1.0000
data_image53
_chemical_formula_structural       Sr2Cu2H12O10
_chemical_formula_sum              "Sr2 Cu2 H12 O10"
_cell_length_a       6.296725
_cell_length_b       5.467378000000002
_cell_length_c       7.977295878227032
_cell_angle_alpha    72.20561901156641
_cell_angle_beta     90.0
_cell_angle_gamma    90.0

_space_group_name_H-M_alt    "P 1"
_space_group_IT_number       1

loop_
  _space_group_symop_operation_xyz
  'x, y, z'

loop_
  _atom_site_type_symbol
  _atom_site_label
  _atom_site_symmetry_multiplicity
  _atom_site_fract_x
  _atom_site_fract_y
  _atom_site_fract_z
  _atom_site_occupancy
  Sr  Sr1       1.0  0.12037083262111992  0.8264414102741284  0.9628848411230138  1.0000
  Sr  Sr2       1.0  0.5480068897595629  0.12591355221229605  0.7040441096032737  1.0000
  Cu  Cu1       1.0  0.6827592994086444  0.31372974335681647  0.11816025988809997  1.0000
  Cu  Cu2       1.0  0.07081685593584552  0.150538808433339  0.7376902425021399  1.0000
  H   H1        1.0  0.44773183116922155  0.8628576406626962  0.5840822373575065  1.0000
  H   H2        1.0  0.17045168613549322  0.039272132562473416  0.5033784653060138  1.0000
  H   H3        1.0  0.24742162798156642  0.03768371045589447  0.8079958562739193  1.0000
  H   H4        1.0  0.9748588143847883  0.6786117563024163  0.13408947316929698  1.0000
  H   H5        1.0  0.8868827655678615  0.6644793511368334  0.46211133408360183  1.0000
  H   H6        1.0  0.21736859320662916  0.3080848732497543  0.4506551828235388  1.0000
  H   H7        1.0  0.8967852173373103  0.7164797927835025  0.640728606027551  1.0000
  H   H8        1.0  0.9386134173255414  0.6478329657111317  0.13336457914556377  1.0000
  H   H9        1.0  0.2237107187975198  0.6618041462497786  0.1908317171037197  1.0000
  H   H10       1.0  0.8787475626450032  0.3191666650818661  0.19204384228214622  1.0000
  H   H11       1.0  0.3860670570284128  0.22795154200866818  0.027029199991375208  1.0000
  H   H12       1.0  0.7047077338211238  0.8345201318152249  0.9494665008969605  1.0000
  O   O1        1.0  0.498498173605185  0.2032264599984046  0.7611578130163252  1.0000
  O   O2        1.0  0.964348301415157  0.6031922195106745  0.34608851003577  1.0000
  O   O3        1.0  0.5407437793328427  0.8541272485745139  0.6426455398905091  1.0000
  O   O4        1.0  0.9579011987661943  0.9716550635639578  0.17042709898669273  1.0000
  O   O5        1.0  0.8201325084082782  0.48916311212815344  0.3988022039666248  1.0000
  O   O6        1.0  0.004589335061609745  0.8397655934095383  0.21775239537237212  1.0000
  O   O7        1.0  0.13477377488743514  0.35703053302131593  0.09206848092435393  1.0000
  O   O8        1.0  0.0641538089257665  0.8366703069186769  0.3412005400750786  1.0000
  O   O9        1.0  0.28203958265658  0.6599355866201222  0.32583101536147296  1.0000
  O   O10       1.0  0.5402809465376777  0.2545920232660137  0.9265080881305039  1.0000
data_image54
_chemical_formula_structural       Sr2Cu2H12O10
_chemical_formula_sum              "Sr2 Cu2 H12 O10"
_cell_length_a       6.296725
_cell_length_b       5.467378000000002
_cell_length_c       7.977295878227032
_cell_angle_alpha    72.20561901156641
_cell_angle_beta     90.0
_cell_angle_gamma    90.0

_space_group_name_H-M_alt    "P 1"
_space_group_IT_number       1

loop_
  _space_group_symop_operation_xyz
  'x, y, z'

loop_
  _atom_site_type_symbol
  _atom_site_label
  _atom_site_symmetry_multiplicity
  _atom_site_fract_x
  _atom_site_fract_y
  _atom_site_fract_z
  _atom_site_occupancy
  Sr  Sr1       1.0  0.13529049744829535  0.14605062911869027  0.1564816199534107  1.0000
  Sr  Sr2       1.0  0.6430533736711368  0.6720667115296237  0.27135836496017873  1.0000
  Cu  Cu1       1.0  0.5783985131420195  0.5986433841171674  0.819349370598502  1.0000
  Cu  Cu2       1.0  0.23791972105391324  0.8807487536687404  0.02595211105654016  1.0000
  H   H1        1.0  0.44837537917192094  0.2566788191907108  0.18989678061916493  1.0000
  H   H2        1.0  0.9314817654667422  0.6391723351553082  0.6201878916472197  1.0000
  H   H3        1.0  0.11317021521244897  0.04870898462831974  0.26743664499372244  1.0000
  H   H4        1.0  0.7672321475110948  0.9512366345152259  0.9674239624291658  1.0000
  H   H5        1.0  0.9657109986292198  0.4554803055943921  0.30792881664820015  1.0000
  H   H6        1.0  0.25069000106304884  0.05747229093685746  0.5162439462728798  1.0000
  H   H7        1.0  0.3836259183008224  0.468808866920881  0.5834186388528906  1.0000
  H   H8        1.0  0.36132755561266094  0.6936677930643782  0.2605719439452514  1.0000
  H   H9        1.0  0.5543345126789063  0.7965563832549378  0.6908782641403377  1.0000
  H   H10       1.0  0.7342389611294493  0.6749255687464029  0.7025319070089608  1.0000
  H   H11       1.0  0.17716208449564874  0.8725264865206555  0.4326529761310667  1.0000
  H   H12       1.0  0.6973414374515414  0.7074819589033723  0.061791129410266876  1.0000
  O   O1        1.0  0.857604230142897  0.15558591557783075  0.8833566830144264  1.0000
  O   O2        1.0  0.4488875405950239  0.29452998604392633  0.7337524299291545  1.0000
  O   O3        1.0  0.33554002520395443  0.2878320945892483  0.39389205630868673  1.0000
  O   O4        1.0  0.31274073803797364  0.3399840247584507  0.638349415268749  1.0000
  O   O5        1.0  0.38294305512681603  0.40275061246939003  0.9585318489025667  1.0000
  O   O6        1.0  0.6990400786744431  0.6820828467607498  0.7598163616203237  1.0000
  O   O7        1.0  0.11313005606643856  0.3252555935177952  0.39011053189460654  1.0000
  O   O8        1.0  0.42091319436440244  0.23522817849880084  0.4304605657234788  1.0000
  O   O9        1.0  0.9953688517562114  0.4998109940061113  0.33161284841480665  1.0000
  O   O10       1.0  0.14144284647045424  0.6776531521463767  0.38735254819039255  1.0000
data_image55
_chemical_formula_structural       Sr2Cu2H12O10
_chemical_formula_sum              "Sr2 Cu2 H12 O10"
_cell_length_a       6.296725
_cell_length_b       5.467378000000002
_cell_length_c       7.977295878227032
_cell_angle_alpha    72.20561901156641
_cell_angle_beta     90.0
_cell_angle_gamma    90.0

_space_group_name_H-M_alt    "P 1"
_space_group_IT_number       1

loop_
  _space_group_symop_operation_xyz
  'x, y, z'

loop_
  _atom_site_type_symbol
  _atom_site_label
  _atom_site_symmetry_multiplicity
  _atom_site_fract_x
  _atom_site_fract_y
  _atom_site_fract_z
  _atom_site_occupancy
  Sr  Sr1       1.0  0.3292899117805064  0.26762285028235056  0.5615939281997271  1.0000
  Sr  Sr2       1.0  0.7967280219309032  0.6787921275536064  0.6870916249063157  1.0000
  Cu  Cu1       1.0  0.1259198758052662  0.2963680474204011  0.7427516605239362  1.0000
  Cu  Cu2       1.0  0.4211043199757114  0.9798761336132884  0.3504953503725119  1.0000
  H   H1        1.0  0.4862148281536065  0.688232400425477  0.999893175001489  1.0000
  H   H2        1.0  0.2972503345226869  0.10021455469541252  0.06163873942568898  1.0000
  H   H3        1.0  0.3120772579786717  0.25466342829167843  0.2253871178254485  1.0000
  H   H4        1.0  0.6719464710913599  0.8958698748610914  0.4331188895739615  1.0000
  H   H5        1.0  0.9228908880613744  0.3577072500484064  0.314280484104529  1.0000
  H   H6        1.0  0.5090192527277395  0.952798077953048  0.7790208687074482  1.0000
  H   H7        1.0  0.5938923511421308  0.9840579655719921  0.47751061915187165  1.0000
  H   H8        1.0  0.626386838615872  0.5452868369175121  0.3980403053574264  1.0000
  H   H9        1.0  0.3958383509889245  0.5830773927737027  0.8746001180261374  1.0000
  H   H10       1.0  0.3194368926342577  0.8376950526144356  0.3822161020943895  1.0000
  H   H11       1.0  0.38420733786188066  0.44734710338525474  0.6132331863045692  1.0000
  H   H12       1.0  0.3756038583815098  0.24020403297618032  0.6653937343508005  1.0000
  O   O1        1.0  0.3919562425289769  0.5096645661396906  0.6791287504602224  1.0000
  O   O2        1.0  0.7912199513666565  0.34856458025751635  0.42153088436316466  1.0000
  O   O3        1.0  0.6340780110913329  0.42171830008737743  0.6248577894730261  1.0000
  O   O4        1.0  0.9721582097699866  0.8497742903418839  0.03505759430117905  1.0000
  O   O5        1.0  0.37507733824895695  0.5280578616075218  0.5016680691296642  1.0000
  O   O6        1.0  0.8493479660246521  0.6568529023788869  0.9046033681661356  1.0000
  O   O7        1.0  0.4963392623467371  0.3659552342724055  0.6009365826969315  1.0000
  O   O8        1.0  0.14813908230280504  0.6487808641395532  0.31889813591260463  1.0000
  O   O9        1.0  0.602286667424778  0.12948084570234641  0.7021527873002924  1.0000
  O   O10       1.0  0.25474800926895114  0.7797171142883599  0.8837522916728631  1.0000
data_image56
_chemical_formula_structural       Sr2Cu2H12O10
_chemical_formula_sum              "Sr2 Cu2 H12 O10"
_cell_length_a       6.296725
_cell_length_b       5.467378000000002
_cell_length_c       7.977295878227032
_cell_angle_alpha    72.20561901156641
_cell_angle_beta     90.0
_cell_angle_gamma    90.0

_space_group_name_H-M_alt    "P 1"
_space_group_IT_number       1

loop_
  _space_group_symop_operation_xyz
  'x, y, z'

loop_
  _atom_site_type_symbol
  _atom_site_label
  _atom_site_symmetry_multiplicity
  _atom_site_fract_x
  _atom_site_fract_y
  _atom_site_fract_z
  _atom_site_occupancy
  Sr  Sr1       1.0  0.021057320409454405  0.7479663365375018  0.47785649460274726  1.0000
  Sr  Sr2       1.0  0.20949494501110166  0.7073322371579707  0.6215526113337546  1.0000
  Cu  Cu1       1.0  0.8191246405476704  0.49051025963854045  0.24346821316430578  1.0000
  Cu  Cu2       1.0  0.943892770272214  0.4278531533200294  0.15844241302693263  1.0000
  H   H1        1.0  0.3729386475170031  0.392673876718618  0.18181071705475915  1.0000
  H   H2        1.0  0.13797356735449284  0.25425522844307125  0.9048922508955002  1.0000
  H   H3        1.0  0.6700134094189707  0.048958539962768555  0.9374883696436882  1.0000
  H   H4        1.0  0.28096099477261305  0.25514815282076597  0.18343464843928814  1.0000
  H   H5        1.0  0.062203604727983475  0.03786513512022793  0.3096203238237649  1.0000
  H   H6        1.0  0.28781772404909134  0.8131047702627257  0.0315153943374753  1.0000
  H   H7        1.0  0.5839977525174618  0.5353915447485633  0.21464182867202908  1.0000
  H   H8        1.0  0.10220986977219582  0.46828600694425404  0.9818514418439008  1.0000
  H   H9        1.0  0.4472830039449036  0.26807639549952  0.5056747584603727  1.0000
  H   H10       1.0  0.4067173843504861  0.9717693910934031  0.4662174110417254  1.0000
  H   H11       1.0  0.6366420441772789  0.8071190759073943  0.9478619513101876  1.0000
  H   H12       1.0  0.5477729942649603  0.19677661079913378  0.7550777709111571  1.0000
  O   O1        1.0  0.2519774660177063  0.5731237385189161  0.48477723210817203  1.0000
  O   O2        1.0  0.235327602000325  0.9429171727970243  0.3800562524847919  1.0000
  O   O3        1.0  0.083807640185114  0.10879325930727646  0.2686046232920489  1.0000
  O   O4        1.0  0.08220376865938306  0.23569680226501077  0.6993670410010964  1.0000
  O   O5        1.0  0.3319650600897148  0.2615469687152654  0.6831175573206565  1.0000
  O   O6        1.0  0.44627639884129167  0.1784288575872779  0.275738182477653  1.0000
  O   O7        1.0  0.5196081903995946  0.13851677207276225  0.10994664247846231  1.0000
  O   O8        1.0  0.8893783277599141  0.5761846012319438  0.4017270990880206  1.0000
  O   O9        1.0  0.10658530531509314  0.01324489843682386  0.5906725402310258  1.0000
  O   O10       1.0  0.9373349744419102  0.6608697283663787  0.9540296766208485  1.0000
data_image57
_chemical_formula_structural       Sr2Cu2H12O10
_chemical_formula_sum              "Sr2 Cu2 H12 O10"
_cell_length_a       6.296725
_cell_length_b       5.467378000000002
_cell_length_c       7.977295878227032
_cell_angle_alpha    72.20561901156641
_cell_angle_beta     90.0
_cell_angle_gamma    90.0

_space_group_name_H-M_alt    "P 1"
_space_group_IT_number       1

loop_
  _space_group_symop_operation_xyz
  'x, y, z'

loop_
  _atom_site_type_symbol
  _atom_site_label
  _atom_site_symmetry_multiplicity
  _atom_site_fract_x
  _atom_site_fract_y
  _atom_site_fract_z
  _atom_site_occupancy
  Sr  Sr1       1.0  0.2204458171618171  0.7896547074342379  0.8752929263864644  1.0000
  Sr  Sr2       1.0  0.2647726550931111  0.7431183846783824  0.9201899210529518  1.0000
  Cu  Cu1       1.0  0.15943760832305998  0.3871108458843082  0.12251678348548012  1.0000
  Cu  Cu2       1.0  0.6605762079707347  0.8781306450255215  0.8914896477945149  1.0000
  H   H1        1.0  0.9367164494178724  0.9518211802933365  0.7156853941996815  1.0000
  H   H2        1.0  0.8577743007335812  0.21366743952967227  0.08571943687275052  1.0000
  H   H3        1.0  0.5212370537010429  0.008047237992286682  0.04853679658845067  1.0000
  H   H4        1.0  0.053127167746424675  0.9225360222626477  0.8655591290444136  1.0000
  H   H5        1.0  0.394022308755666  0.08808341645635664  0.8783567573409528  1.0000
  H   H6        1.0  0.48132450762204826  0.7768285184865817  0.1608547940850258  1.0000
  H   H7        1.0  0.5466958311153576  0.6323057739064097  0.2679639859125018  1.0000
  H   H8        1.0  0.7733347532339394  0.8086652485653758  0.7794579031469766  1.0000
  H   H9        1.0  0.6787809857632965  0.8503438122133957  0.46886667469516397  1.0000
  H   H10       1.0  0.4030037811025977  0.9856530160177499  0.298329008219298  1.0000
  H   H11       1.0  0.051868905778974295  0.8746465733274817  0.6479486501775682  1.0000
  H   H12       1.0  0.7351583228446543  0.7544685699976981  0.8777407947927713  1.0000
  O   O1        1.0  0.4610235168947838  0.47657431685365736  0.7701861785608344  1.0000
  O   O2        1.0  0.8729259840474697  0.7427431661053561  0.6672146916553174  1.0000
  O   O3        1.0  0.4843770837178454  0.2343732506269589  0.2872543076009606  1.0000
  O   O4        1.0  0.7983113481895998  0.720995549345389  0.12876759201753885  1.0000
  O   O5        1.0  0.984938042005524  0.2815497084520757  0.050735308115690714  1.0000
  O   O6        1.0  0.459250231157057  0.056466905400156975  0.7620621150417719  1.0000
  O   O7        1.0  0.3417689655907452  0.6523813346866518  0.56580202326586  1.0000
  O   O8        1.0  0.7124238051765133  0.9363207187852822  0.7080494648544118  1.0000
  O   O9        1.0  0.21555094465293223  0.2557911874173442  0.8223126517405035  1.0000
  O   O10       1.0  0.8583247790957103  0.7985849415417761  0.749435284291394  1.0000
data_image58
_chemical_formula_structural       Sr2Cu2H12O10
_chemical_formula_sum              "Sr2 Cu2 H12 O10"
_cell_length_a       6.296725
_cell_length_b       5.467378000000002
_cell_length_c       7.977295878227032
_cell_angle_alpha    72.20561901156641
_cell_angle_beta     90.0
_cell_angle_gamma    90.0

_space_group_name_H-M_alt    "P 1"
_space_group_IT_number       1

loop_
  _space_group_symop_operation_xyz
  'x, y, z'

loop_
  _atom_site_type_symbol
  _atom_site_label
  _atom_site_symmetry_multiplicity
  _atom_site_fract_x
  _atom_site_fract_y
  _atom_site_fract_z
  _atom_site_occupancy
  Sr  Sr1       1.0  0.4780667658778839  0.07558825261367019  0.35348362347576767  1.0000
  Sr  Sr2       1.0  0.38143427786417305  0.10565577808301896  0.8982810172383324  1.0000
  Cu  Cu1       1.0  0.9421742658596486  0.5426603172090836  0.6405816756669083  1.0000
  Cu  Cu2       1.0  0.6935107939061709  0.6876378636807203  0.1766106378636323  1.0000
  H   H1        1.0  0.9081664636614732  0.04724560142494738  0.913285578310024  1.0000
  H   H2        1.0  0.4903028877452016  0.20900807389989495  0.7907693814486265  1.0000
  H   H3        1.0  0.7916014131587872  0.37207043170928955  0.3445099373348057  1.0000
  H   H4        1.0  0.36038510128855705  0.7366623023990542  0.5352649390697479  1.0000
  H   H5        1.0  0.5909785669064149  0.3713127162773162  0.9857926261611283  1.0000
  H   H6        1.0  0.2021180532174185  0.9553193693282083  0.6074635903351009  1.0000
  H   H7        1.0  0.2972706906730309  0.17751899966970086  0.2521391715563368  1.0000
  H   H8        1.0  0.9413925092667341  0.653420724789612  0.5245805402228143  1.0000
  H   H9        1.0  0.5378841916099191  0.09538219459500397  0.23410156508907676  1.0000
  H   H10       1.0  0.4869990936713293  0.05218589573632926  0.0704124920303002  1.0000
  H   H11       1.0  0.7198048925492913  0.19371881638653576  0.9773700768128037  1.0000
  H   H12       1.0  0.05073119653388858  0.4736932157538831  0.7824274012818933  1.0000
  O   O1        1.0  0.007445928611559793  0.4693898565310519  0.34397054224973544  1.0000
  O   O2        1.0  0.8596723799419124  0.30493328580632806  0.9882010112378339  1.0000
  O   O3        1.0  0.9184874237980694  0.2651107031852007  0.5969430925615598  1.0000
  O   O4        1.0  0.9450627916958183  0.6104993219487369  0.6931199112441391  1.0000
  O   O5        1.0  0.5993824829347432  0.9935456120874733  0.10828852876875317  1.0000
  O   O6        1.0  0.592895032488741  0.7971593199763447  0.44704490655567497  1.0000
  O   O7        1.0  0.869401438976638  0.0003130468539893627  0.9636261059931712  1.0000
  O   O8        1.0  0.42068970928085037  0.5191058402415365  0.13457688968628645  1.0000
  O   O9        1.0  0.9446512094273203  0.7402475417038659  0.4455094645963982  1.0000
  O   O10       1.0  0.1701745527170715  0.7719260185258463  0.023660531849600375  1.0000
data_image59
_chemical_formula_structural       Sr2Cu2H12O10
_chemical_formula_sum              "Sr2 Cu2 H12 O10"
_cell_length_a       6.296725
_cell_length_b       5.467378000000002
_cell_length_c       7.977295878227032
_cell_angle_alpha    72.20561901156641
_cell_angle_beta     90.0
_cell_angle_gamma    90.0

_space_group_name_H-M_alt    "P 1"
_space_group_IT_number       1

loop_
  _space_group_symop_operation_xyz
  'x, y, z'

loop_
  _atom_site_type_symbol
  _atom_site_label
  _atom_site_symmetry_multiplicity
  _atom_site_fract_x
  _atom_site_fract_y
  _atom_site_fract_z
  _atom_site_occupancy
  Sr  Sr1       1.0  0.44611465971684083  0.16180361779697705  0.35871288186172023  1.0000
  Sr  Sr2       1.0  0.5837025443324819  0.36728392794611864  0.9743562665244099  1.0000
  Cu  Cu1       1.0  0.3370588447432965  0.20077975955791771  0.6929238514931058  1.0000
  Cu  Cu2       1.0  0.2960069229011424  0.03942054882645607  0.3747229417786002  1.0000
  H   H1        1.0  0.06477495608851314  0.08995057526044548  0.09653963177697733  1.0000
  H   H2        1.0  0.45651225512847304  0.4920110742095858  0.7928687869571149  1.0000
  H   H3        1.0  0.843925455441422  0.25098706781864166  0.01560358121059835  1.0000
  H   H4        1.0  0.4901894391514361  0.19114040164276958  0.2904156050644815  1.0000
  H   H5        1.0  0.20416802586987615  0.8130858773365617  0.889047670410946  1.0000
  H   H6        1.0  0.14282439602538943  0.3701165020465851  0.23582350043579936  1.0000
  H   H7        1.0  0.864129189751111  0.6288560683606192  0.8882058078015689  1.0000
  H   H8        1.0  0.4535873958375305  0.8721576905809343  0.7695722666394431  1.0000
  H   H9        1.0  0.0662754438817501  0.29725568984667916  0.9158417163416743  1.0000
  H   H10       1.0  0.8746556744445115  0.9526639392133802  0.6106883768807165  1.0000
  H   H11       1.0  0.761208413168788  0.9487021188833751  0.43731855880469084  1.0000
  H   H12       1.0  0.8333045849576592  0.28415344655513763  0.8049665903672576  1.0000
  O   O1        1.0  0.9299501946370583  0.17381109987036325  0.46369025215972215  1.0000
  O   O2        1.0  0.17067872198822442  0.628153717785608  0.3773837720473239  1.0000
  O   O3        1.0  0.46305098169250414  0.04324033443117514  0.007772404504066799  1.0000
  O   O4        1.0  0.8137409354094416  0.04740331892389804  0.35853674612008035  1.0000
  O   O5        1.0  0.11906279780669138  0.8599905685987324  0.6640308123605791  1.0000
  O   O6        1.0  0.39666481385938823  0.5913980682380497  0.3095124835090246  1.0000
  O   O7        1.0  0.6524794256547466  0.7465074120555073  0.3388094203255605  1.0000
  O   O8        1.0  0.07032220624387264  0.5820466593722813  0.15319463808555156  1.0000
  O   O9        1.0  0.7434611955104629  0.18106834241189063  0.8651811253803317  1.0000
  O   O10       1.0  0.169462863530498  0.20385474408976734  0.974665570538491  1.0000
data_image60
_chemical_formula_structural       Sr2Cu2H12O10
_chemical_formula_sum              "Sr2 Cu2 H12 O10"
_cell_length_a       6.296725
_cell_length_b       5.467378000000002
_cell_length_c       7.977295878227032
_cell_angle_alpha    72.20561901156641
_cell_angle_beta     90.0
_cell_angle_gamma    90.0

_space_group_name_H-M_alt    "P 1"
_space_group_IT_number       1

loop_
  _space_group_symop_operation_xyz
  'x, y, z'

loop_
  _atom_site_type_symbol
  _atom_site_label
  _atom_site_symmetry_multiplicity
  _atom_site_fract_x
  _atom_site_fract_y
  _atom_site_fract_z
  _atom_site_occupancy
  Sr  Sr1       1.0  0.971032333211042  0.6083834250457585  0.8420456546009518  1.0000
  Sr  Sr2       1.0  0.5268561120610684  0.6574982402380556  0.4840277250041254  1.0000
  Cu  Cu1       1.0  0.1288344489876181  0.8996433285647072  0.7664687954820693  1.0000
  Cu  Cu2       1.0  0.8714713883819059  0.9178026914596558  0.08038464974379167  1.0000
  H   H1        1.0  0.17060810013208538  0.8094833688810468  0.3768945012707263  1.0000
  H   H2        1.0  0.3098455669824034  0.8383567221462727  0.77652578195557  1.0000
  H   H3        1.0  0.8121164718213549  0.35634705424308777  0.5397073936183006  1.0000
  H   H4        1.0  0.10709711071103811  0.8530952588189393  0.5146914850920439  1.0000
  H   H5        1.0  0.8518088175915182  0.7049586833454669  0.1367498867912218  1.0000
  H   H6        1.0  0.8922881714534014  0.16767290950519964  0.3162965774536133  1.0000
  H   H7        1.0  0.6555903549306095  0.16227684658952057  0.6913282376335701  1.0000
  H   H8        1.0  0.05074569513089955  0.42992973409127444  0.3723922790668439  1.0000
  H   H9        1.0  0.1013281480409205  0.12251691275741905  0.7346284696832299  1.0000
  H   H10       1.0  0.22101769829168916  0.8341530322795734  0.6940318896085955  1.0000
  H   H11       1.0  0.40192649071104825  0.5409331387490965  0.5075490083545446  1.0000
  H   H12       1.0  0.763562984764576  0.49244797555729747  0.1142738563939929  1.0000
  O   O1        1.0  0.3091978266602382  0.8244757490174379  0.14113530499162152  1.0000
  O   O2        1.0  0.4127588716801256  0.13838189095258713  0.17270417150575668  1.0000
  O   O3        1.0  0.16616686270572245  0.9275121228420176  0.21330626012058929  1.0000
  O   O4        1.0  0.8259656605077907  0.3449353635078296  0.02692606847267598  1.0000
  O   O5        1.0  0.569073420308996  0.42791332001797855  0.9331908878230024  1.0000
  O   O6        1.0  0.6574845799477771  0.4324724117759615  0.3471122669870965  1.0000
  O   O7        1.0  0.11321772134397179  0.11782753560692072  0.04856806433235761  1.0000
  O   O8        1.0  0.5532757139008027  0.885035369428806  0.430102183483541  1.0000
  O   O9        1.0  0.9633421839207585  0.7461622615519445  0.18244534102268517  1.0000
  O   O10       1.0  0.19319062995054992  0.40379643213236704  0.17217409249860793  1.0000
data_image61
_chemical_formula_structural       Sr2Cu2H12O10
_chemical_formula_sum              "Sr2 Cu2 H12 O10"
_cell_length_a       6.296725
_cell_length_b       5.467378000000002
_cell_length_c       7.977295878227032
_cell_angle_alpha    72.20561901156641
_cell_angle_beta     90.0
_cell_angle_gamma    90.0

_space_group_name_H-M_alt    "P 1"
_space_group_IT_number       1

loop_
  _space_group_symop_operation_xyz
  'x, y, z'

loop_
  _atom_site_type_symbol
  _atom_site_label
  _atom_site_symmetry_multiplicity
  _atom_site_fract_x
  _atom_site_fract_y
  _atom_site_fract_z
  _atom_site_occupancy
  Sr  Sr1       1.0  0.3100767439464107  0.68521389644593  0.9294947360176593  1.0000
  Sr  Sr2       1.0  0.5747661910718307  0.2696192591683939  0.13947764894692227  1.0000
  Cu  Cu1       1.0  0.04894914315082133  0.9137825189973228  0.5538947635068325  1.0000
  Cu  Cu2       1.0  0.3634354076348245  0.14372855820693076  0.8811064069159329  1.0000
  H   H1        1.0  0.17783189075998962  0.18586206645704806  0.39735815941821784  1.0000
  H   H2        1.0  0.391903531155549  0.3307763007469475  0.09771291073411703  1.0000
  H   H3        1.0  0.7222431290356326  0.9963030517101288  0.5768974623642862  1.0000
  H   H4        1.0  0.26836284901946783  0.24465392786078155  0.06000507343560457  1.0000
  H   H5        1.0  0.3758411594899371  0.010549922473728657  0.9035986796952784  1.0000
  H   H6        1.0  0.7400181861594319  0.26976867322809994  0.3507478926330805  1.0000
  H   H7        1.0  0.3442378005129285  0.08314454974606633  0.6563927213537681  1.0000
  H   H8        1.0  0.567655316204764  0.3216200275346637  0.6160847229184583  1.0000
  H   H9        1.0  0.9126795269548893  0.3681083071860485  0.8100447552278638  1.0000
  H   H10       1.0  0.5996410587104037  0.7168447252479382  0.34840400505345315  1.0000
  H   H11       1.0  0.24132433161139488  0.6463465985725634  0.3001298187300563  1.0000
  H   H12       1.0  0.00880070636048913  0.31209488259628415  0.5398955754935741  1.0000
  O   O1        1.0  0.24493248332873918  0.13564365537604317  0.9183537676581182  1.0000
  O   O2        1.0  0.3336958372965455  0.8117548080626875  0.551734609703999  1.0000
  O   O3        1.0  0.17773428838700056  0.6814468641532585  0.054833708330988884  1.0000
  O   O4        1.0  0.23340529983397573  0.37557312357239425  0.4344306596321985  1.0000
  O   O5        1.0  0.598742090689484  0.02154876966960728  0.4737493061074929  1.0000
  O   O6        1.0  0.7139040465699509  0.48660687333904207  0.46705135246156715  1.0000
  O   O7        1.0  0.8819787470856681  0.8671712693758309  0.794285830881563  1.0000
  O   O8        1.0  0.8386687949532643  0.5284425544086844  0.02019156061578542  1.0000
  O   O9        1.0  0.752934727450338  0.11539975323830731  0.6485523812880274  1.0000
  O   O10       1.0  0.16803728024387965  0.7174474672065116  0.6641262588091195  1.0000
data_image62
_chemical_formula_structural       Sr2Cu2H12O10
_chemical_formula_sum              "Sr2 Cu2 H12 O10"
_cell_length_a       6.296725
_cell_length_b       5.467378000000002
_cell_length_c       7.977295878227032
_cell_angle_alpha    72.20561901156641
_cell_angle_beta     90.0
_cell_angle_gamma    90.0

_space_group_name_H-M_alt    "P 1"
_space_group_IT_number       1

loop_
  _space_group_symop_operation_xyz
  'x, y, z'

loop_
  _atom_site_type_symbol
  _atom_site_label
  _atom_site_symmetry_multiplicity
  _atom_site_fract_x
  _atom_site_fract_y
  _atom_site_fract_z
  _atom_site_occupancy
  Sr  Sr1       1.0  0.8552460757782683  0.6201758937677369  0.7353888412471861  1.0000
  Sr  Sr2       1.0  0.42644189251586795  0.7384719499968924  0.735221681476105  1.0000
  Cu  Cu1       1.0  0.11888752738013864  0.2575611483771354  0.282168038902455  1.0000
  Cu  Cu2       1.0  0.5119182713096961  0.05752502102404833  0.0933228941867128  1.0000
  H   H1        1.0  0.36478059215005487  0.2161657374817878  0.15511082264129072  1.0000
  H   H2        1.0  0.2558077728608623  0.8417055802419782  0.07288095587864518  1.0000
  H   H3        1.0  0.45217448323819553  0.0978893656283617  0.8270718401763588  1.0000
  H   H4        1.0  0.8918427526950836  0.5533911436796188  0.2690945118665695  1.0000
  H   H5        1.0  0.8832939770072699  0.4962382214143872  0.8995989528484643  1.0000
  H   H6        1.0  0.4136678830254823  0.6386762618203647  0.6400612774305046  1.0000
  H   H7        1.0  0.49271317437523976  0.9917681525694206  0.984008962009284  1.0000
  H   H8        1.0  0.4684892190853134  0.01378860347904265  0.7605279257986695  1.0000
  H   H9        1.0  0.21223828895017505  0.613972348626703  0.38602859154343605  1.0000
  H   H10       1.0  0.9333620668621734  0.3844215094577521  0.23798314144369215  1.0000
  H   H11       1.0  0.14655506354756653  0.9203793752240017  0.7942543695680797  1.0000
  H   H12       1.0  0.18538260459899902  0.5508097880519927  0.27714663557708263  1.0000
  O   O1        1.0  0.7636281242594123  0.10762778131174855  0.9919542574789375  1.0000
  O   O2        1.0  0.5194237031973898  0.9373713342938572  0.6101867710240185  1.0000
  O   O3        1.0  0.1904356013983488  0.7531804803293198  0.7548923703143373  1.0000
  O   O4        1.0  0.08373923716135323  0.7989740055054426  0.14914588432293385  1.0000
  O   O5        1.0  0.28442798406467773  0.96595846908167  0.5263352276469959  1.0000
  O   O6        1.0  0.30201712215784937  0.20689977961592376  0.3102793480211403  1.0000
  O   O7        1.0  0.6572396305855364  0.5441227166447788  0.09127139288466424  1.0000
  O   O8        1.0  0.5016997803759295  0.20463552459841594  0.5065717737888917  1.0000
  O   O9        1.0  0.7246598736337546  0.22603724926011637  0.5075132278143428  1.0000
  O   O10       1.0  0.48493121033970965  0.8236846891813911  0.9528956785798073  1.0000
data_image63
_chemical_formula_structural       Sr2Cu2H12O10
_chemical_formula_sum              "Sr2 Cu2 H12 O10"
_cell_length_a       6.296725
_cell_length_b       5.467378000000002
_cell_length_c       7.977295878227032
_cell_angle_alpha    72.20561901156641
_cell_angle_beta     90.0
_cell_angle_gamma    90.0

_space_group_name_H-M_alt    "P 1"
_space_group_IT_number       1

loop_
  _space_group_symop_operation_xyz
  'x, y, z'

loop_
  _atom_site_type_symbol
  _atom_site_label
  _atom_site_symmetry_multiplicity
  _atom_site_fract_x
  _atom_site_fract_y
  _atom_site_fract_z
  _atom_site_occupancy
  Sr  Sr1       1.0  0.6074442972894758  0.32139248854946345  0.18462727859150618  1.0000
  Sr  Sr2       1.0  0.8482064154231921  0.596498349623289  0.6385684815468267  1.0000
  Cu  Cu1       1.0  0.5254262825474143  0.5186385876731947  0.3990985199488932  1.0000
  Cu  Cu2       1.0  0.07326390652451664  0.7604509487282485  0.4178920992417261  1.0000
  H   H1        1.0  0.9319389053853229  0.7040130151435733  0.5513063083635643  1.0000
  H   H2        1.0  0.8393599417759106  0.13615906843915582  0.5781422001309693  1.0000
  H   H3        1.0  0.37963330860293354  0.3604507688432932  0.5168183918576688  1.0000
  H   H4        1.0  0.8369408855214715  0.8768547670915723  0.0734712234698236  1.0000
  H   H5        1.0  0.21144552354235202  0.6716535738669336  0.9571933033876121  1.0000
  H   H6        1.0  0.9681861473945901  0.48918408242752776  0.38267323514446616  1.0000
  H   H7        1.0  0.13604771764948964  0.6598839908838272  0.2548481764670214  1.0000
  H   H8        1.0  0.7471042290562764  0.26590160839259624  0.4498247149749659  1.0000
  H   H9        1.0  0.25366131076589227  0.09268452826654539  0.4030929417349398  1.0000
  H   H10       1.0  0.33239016390871257  0.557219147332944  0.9257327344967052  1.0000
  H   H11       1.0  0.5797808929346502  0.23475228366442025  0.984104610979557  1.0000
  H   H12       1.0  0.9661895520985126  0.9543287195265293  0.6048781909048557  1.0000
  O   O1        1.0  0.9068171092658304  0.6768839172145817  0.6445174271357246  1.0000
  O   O2        1.0  0.3667206703685224  0.3964786850847304  0.4352495191851631  1.0000
  O   O3        1.0  0.19447704078629613  0.5448324866447365  0.8264657068066299  1.0000
  O   O4        1.0  0.34207255207002163  0.04221341060474515  0.7707353909499943  1.0000
  O   O5        1.0  0.0028465182695072144  0.7454908895306289  0.6657934718441538  1.0000
  O   O6        1.0  0.03774209995754063  0.045792392920702696  0.5596242102619726  1.0000
  O   O7        1.0  0.03882185264956206  0.3492453875951469  0.08986325780279003  1.0000
  O   O8        1.0  0.8220386142202187  0.5716089565539733  0.2013544897781685  1.0000
  O   O9        1.0  0.6357030286635563  0.9675085954368114  0.8224473426525947  1.0000
  O   O10       1.0  0.008282239330583252  0.04249835945665836  0.7507592750480399  1.0000
data_image64
_chemical_formula_structural       Sr2Cu2H12O10
_chemical_formula_sum              "Sr2 Cu2 H12 O10"
_cell_length_a       6.296725
_cell_length_b       5.467378000000002
_cell_length_c       7.977295878227032
_cell_angle_alpha    72.20561901156641
_cell_angle_beta     90.0
_cell_angle_gamma    90.0

_space_group_name_H-M_alt    "P 1"
_space_group_IT_number       1

loop_
  _space_group_symop_operation_xyz
  'x, y, z'

loop_
  _atom_site_type_symbol
  _atom_site_label
  _atom_site_symmetry_multiplicity
  _atom_site_fract_x
  _atom_site_fract_y
  _atom_site_fract_z
  _atom_site_occupancy
  Sr  Sr1       1.0  0.382603834499605  0.17792526935227215  0.14549408107995987  1.0000
  Sr  Sr2       1.0  0.5536135664442554  0.06853797775693238  0.3835908252513036  1.0000
  Cu  Cu1       1.0  0.025544764008373022  0.7158984598354436  0.04917313714395277  1.0000
  Cu  Cu2       1.0  0.9171855000313371  0.37679018219932914  0.4369159892667085  1.0000
  H   H1        1.0  0.25687406212091446  0.549633921822533  0.16269805002957582  1.0000
  H   H2        1.0  0.14094037667382509  0.024652166990563273  0.9044090458191931  1.0000
  H   H3        1.0  0.07147949084173888  0.7003611195832491  0.41424679127521813  1.0000
  H   H4        1.0  0.17809349298477173  0.5524832620285451  0.2652351171709597  1.0000
  H   H5        1.0  0.20012110250536352  0.6520181271480396  0.5627007300499827  1.0000
  H   H6        1.0  0.7170127358986065  0.9676910815760493  0.12228307453915477  1.0000
  H   H7        1.0  0.11717575014336035  0.0806802132865414  0.9891630121865091  1.0000
  H   H8        1.0  0.516965389251709  0.9659777525812387  0.045319077908061445  1.0000
  H   H9        1.0  0.5804323074407876  0.1541313473135233  0.6572875110432506  1.0000
  H   H10       1.0  0.7348498863866553  0.0045173136168159544  0.30670084175653756  1.0000
  H   H11       1.0  0.16716359462589025  0.1765509182587266  0.0787300190422684  1.0000
  H   H12       1.0  0.8339519882574677  0.2921610036864877  0.8031346444040537  1.0000
  O   O1        1.0  0.8862466120626777  0.971176840364933  0.8779749309178442  1.0000
  O   O2        1.0  0.8324630516581237  0.8347785854712129  0.9418431277154014  1.0000
  O   O3        1.0  0.5755583154968917  0.6725080185278784  0.45256588619668037  1.0000
  O   O4        1.0  0.09806831472087651  0.36568843049462885  0.7906640194123611  1.0000
  O   O5        1.0  0.767138139839517  0.458800433203578  0.9016084219429104  1.0000
  O   O6        1.0  0.8107289514737204  0.2191874145064503  0.7633523653494194  1.0000
  O   O7        1.0  0.32323252875357866  0.970663561951369  0.09330290817888454  1.0000
  O   O8        1.0  0.5477938714029733  0.34859187848633155  0.08847279893234372  1.0000
  O   O9        1.0  0.9773433554055373  0.15882154201972298  0.45211284555261955  1.0000
  O   O10       1.0  0.09694865838537225  0.6991963047767058  0.21859970898367465  1.0000
data_image65
_chemical_formula_structural       Sr2Cu2H12O10
_chemical_formula_sum              "Sr2 Cu2 H12 O10"
_cell_length_a       6.296725
_cell_length_b       5.467378000000002
_cell_length_c       7.977295878227032
_cell_angle_alpha    72.20561901156641
_cell_angle_beta     90.0
_cell_angle_gamma    90.0

_space_group_name_H-M_alt    "P 1"
_space_group_IT_number       1

loop_
  _space_group_symop_operation_xyz
  'x, y, z'

loop_
  _atom_site_type_symbol
  _atom_site_label
  _atom_site_symmetry_multiplicity
  _atom_site_fract_x
  _atom_site_fract_y
  _atom_site_fract_z
  _atom_site_occupancy
  Sr  Sr1       1.0  0.20423486357321963  0.1739035249920562  0.6296490442473441  1.0000
  Sr  Sr2       1.0  0.6197363516548648  0.17318523238645867  0.8021979245531838  1.0000
  Cu  Cu1       1.0  0.4843955540563911  0.6715766580600757  0.6353354638849851  1.0000
  Cu  Cu2       1.0  0.07800367684103549  0.4756481733638793  0.6220020011533052  1.0000
  H   H1        1.0  0.5191670660860837  0.8292981635313481  0.4540038991253823  1.0000
  H   H2        1.0  0.9421808312181383  0.5519136721268296  0.22248139651492238  1.0000
  H   H3        1.0  0.7166345871228259  0.8791504725813866  0.79837252269499  1.0000
  H   H4        1.0  0.3579632365144789  0.9990810323506594  0.5386020815931261  1.0000
  H   H5        1.0  0.6666668665129691  0.6246134846005589  0.5366455209441483  1.0000
  H   H6        1.0  0.026957790832966566  0.032910639885813  0.9913886017166078  1.0000
  H   H7        1.0  0.35904423863394186  0.5959614819148555  0.997706813981381  1.0000
  H   H8        1.0  0.4091526890406385  0.2678858188446611  0.270733335375553  1.0000
  H   H9        1.0  0.28571562841534615  0.7673806978273205  0.291819519829005  1.0000
  H   H10       1.0  0.4629603169159964  0.9772637467831373  0.9942091763368808  1.0000
  H   H11       1.0  0.5503445120994002  0.6927819430711679  0.8681815534364432  1.0000
  H   H12       1.0  0.4546113023534417  0.4475683472119272  0.9419343750923872  1.0000
  O   O1        1.0  0.9132113927626051  0.9972778595110867  0.5486441183602437  1.0000
  O   O2        1.0  0.2303724684752524  0.16372661828063428  0.5542489030631259  1.0000
  O   O3        1.0  0.7906755129806697  0.658362906135153  0.5600502250599675  1.0000
  O   O4        1.0  0.3680730835767463  0.9798633725149557  0.9043570017674938  1.0000
  O   O5        1.0  0.14096413474180736  0.22291618213057518  0.016199370595586515  1.0000
  O   O6        1.0  0.776865896419622  0.9481966791208833  0.523267806856893  1.0000
  O   O7        1.0  0.8778861139435321  0.3337966287508607  0.6845071071584243  1.0000
  O   O8        1.0  0.7391904722899199  0.6961068207165226  0.637663027853705  1.0000
  O   O9        1.0  0.9413964212981227  0.9938337254861835  0.5843700113764498  1.0000
  O   O10       1.0  0.7274785951522063  0.14688424882479012  0.5254314262419939  1.0000
data_image66
_chemical_formula_structural       Sr2Cu2H12O10
_chemical_formula_sum              "Sr2 Cu2 H12 O10"
_cell_length_a       6.296725
_cell_length_b       5.467378000000002
_cell_length_c       7.977295878227032
_cell_angle_alpha    72.20561901156641
_cell_angle_beta     90.0
_cell_angle_gamma    90.0

_space_group_name_H-M_alt    "P 1"
_space_group_IT_number       1

loop_
  _space_group_symop_operation_xyz
  'x, y, z'

loop_
  _atom_site_type_symbol
  _atom_site_label
  _atom_site_symmetry_multiplicity
  _atom_site_fract_x
  _atom_site_fract_y
  _atom_site_fract_z
  _atom_site_occupancy
  Sr  Sr1       1.0  0.44812218588776886  0.4781897932989523  0.47341152583248913  1.0000
  Sr  Sr2       1.0  0.09267940893187188  0.9073386320378631  0.3895602330157999  1.0000
  Cu  Cu1       1.0  0.1123594546224922  0.25806688447482884  0.7493358229257865  1.0000
  Cu  Cu2       1.0  0.12409438355825841  0.5383298757951707  0.6858901304658502  1.0000
  H   H1        1.0  0.3803225716110319  0.6557657432276756  0.47593852085992694  1.0000
  H   H2        1.0  0.8936217783484608  0.4055716379079968  0.47323481645435095  1.0000
  H   H3        1.0  0.20986701035872102  0.615649027749896  0.6303110108710825  1.0000
  H   H4        1.0  0.7380737736821175  0.31955756712704897  0.8896020883694291  1.0000
  H   H5        1.0  0.6470487620681524  0.8393627117620781  0.12053556949831545  1.0000
  H   H6        1.0  0.45077831915114075  0.3853214909613598  0.6082902108319104  1.0000
  H   H7        1.0  0.4821601284784265  0.8787556542083621  0.9426084980723317  1.0000
  H   H8        1.0  0.5501774274744093  0.8023023449350148  0.20503974106395617  1.0000
  H   H9        1.0  0.2187813464552164  0.5626546245766804  0.8740700166672468  1.0000
  H   H10       1.0  0.35386818822007626  0.23918307072017342  0.014551740256138146  1.0000
  H   H11       1.0  0.39295687316916883  0.8706321326899342  0.7664399913046509  1.0000
  H   H12       1.0  0.11369383335113525  0.4456391707062721  0.8740553483366966  1.0000
  O   O1        1.0  0.5707181203761138  0.757929447630886  0.7038174052140675  1.0000
  O   O2        1.0  0.8547079092822969  0.7067016281653196  0.6114293400896713  1.0000
  O   O3        1.0  0.6544963829219341  0.2921600083063822  0.050895718042738736  1.0000
  O   O4        1.0  0.18654015404172242  0.9025647927774116  0.5554092806996778  1.0000
  O   O5        1.0  0.45814526398316957  0.5647805437911302  0.341434658595972  1.0000
  O   O6        1.0  0.8149566842475906  0.30223353556357324  0.9121899412130006  1.0000
  O   O7        1.0  0.44873550604097545  0.35529465950094163  0.10484347482270095  1.0000
  O   O8        1.0  0.234613370441366  0.5893087422009557  0.23956893663853407  1.0000
  O   O9        1.0  0.13586047761054942  0.8783625082287472  0.47569358855253085  1.0000
  O   O10       1.0  0.05280253628734499  0.22523726109648123  0.8762666832190007  1.0000
data_image67
_chemical_formula_structural       Sr2Cu2H12O10
_chemical_formula_sum              "Sr2 Cu2 H12 O10"
_cell_length_a       6.296725
_cell_length_b       5.467378000000002
_cell_length_c       7.977295878227032
_cell_angle_alpha    72.20561901156641
_cell_angle_beta     90.0
_cell_angle_gamma    90.0

_space_group_name_H-M_alt    "P 1"
_space_group_IT_number       1

loop_
  _space_group_symop_operation_xyz
  'x, y, z'

loop_
  _atom_site_type_symbol
  _atom_site_label
  _atom_site_symmetry_multiplicity
  _atom_site_fract_x
  _atom_site_fract_y
  _atom_site_fract_z
  _atom_site_occupancy
  Sr  Sr1       1.0  0.6739564259769395  0.14124245557468385  0.8836264139972627  1.0000
  Sr  Sr2       1.0  0.47766021385905333  0.27287526516010985  0.5353899313049624  1.0000
  Cu  Cu1       1.0  0.5782751028891653  0.8223587228276301  0.9794063742738217  1.0000
  Cu  Cu2       1.0  0.3502246248535812  0.37991387816146016  0.7676963931880891  1.0000
  H   H1        1.0  0.8824885856593028  0.41720757842995226  0.22730408352799714  1.0000
  H   H2        1.0  0.3864762074081227  0.19899700838141143  0.7697158246301115  1.0000
  H   H3        1.0  0.16414301143959165  0.5949403736740351  0.9158659388776869  1.0000
  H   H4        1.0  0.20266060438007116  0.937858157325536  0.5662197875790298  1.0000
  H   H5        1.0  0.48394294106401503  0.7064883029088378  0.10928848350886256  1.0000
  H   H6        1.0  0.7971492854412645  0.3516826696577482  0.3350590653717518  1.0000
  H   H7        1.0  0.5785461276536807  0.8617024491541088  0.8124116805702215  1.0000
  H   H8        1.0  0.22206702688708901  0.07271948237757897  0.23165776650421321  1.0000
  H   H9        1.0  0.865262359380722  0.4333623801358044  0.9257601383142173  1.0000
  H   H10       1.0  0.8686433946713805  0.7591587251517922  0.4066066882805899  1.0000
  H   H11       1.0  0.6796945529058576  0.5778234346071258  0.8773489992599934  1.0000
  H   H12       1.0  0.1896219253540039  0.26975458208471537  0.5647560590878129  1.0000
  O   O1        1.0  0.461817498493474  0.1376572787994519  0.7563183311140165  1.0000
  O   O2        1.0  0.7114409492351115  0.7367607068736106  0.6934125683037564  1.0000
  O   O3        1.0  0.2624550382606685  0.4692137303936761  0.8616934482124634  1.0000
  O   O4        1.0  0.8382007816107944  0.1648330221651122  0.9802041944349185  1.0000
  O   O5        1.0  0.6980367077630945  0.5232834860216826  0.4283852017179015  1.0000
  O   O6        1.0  0.3351559756556526  0.6336099547334015  0.2673450613801833  1.0000
  O   O7        1.0  0.27994718274567276  0.36470153904519975  0.9251419262145646  1.0000
  O   O8        1.0  0.5757420354057103  0.7085801254725084  0.5934765804558992  1.0000
  O   O9        1.0  0.6775306845447631  0.6121685948746745  0.15356202409020625  1.0000
  O   O10       1.0  0.6398163649937487  0.08769049274269491  0.43191580614075065  1.0000
data_image68
_chemical_formula_structural       Sr2Cu2H12O10
_chemical_formula_sum              "Sr2 Cu2 H12 O10"
_cell_length_a       6.296725
_cell_length_b       5.467378000000002
_cell_length_c       7.977295878227032
_cell_angle_alpha    72.20561901156641
_cell_angle_beta     90.0
_cell_angle_gamma    90.0

_space_group_name_H-M_alt    "P 1"
_space_group_IT_number       1

loop_
  _space_group_symop_operation_xyz
  'x, y, z'

loop_
  _atom_site_type_symbol
  _atom_site_label
  _atom_site_symmetry_multiplicity
  _atom_site_fract_x
  _atom_site_fract_y
  _atom_site_fract_z
  _atom_site_occupancy
  Sr  Sr1       1.0  0.3539115188177675  0.7033657471183687  0.6136719816131517  1.0000
  Sr  Sr2       1.0  0.42093522622599266  0.8872109623625875  0.5962740957911592  1.0000
  Cu  Cu1       1.0  0.8121419462841004  0.5207815798348747  0.315437638972071  1.0000
  Cu  Cu2       1.0  0.2759739770554006  0.3717407174408436  0.9093636386096478  1.0000
  H   H1        1.0  0.36685058544389904  0.4243449056521058  0.48990052402950823  1.0000
  H   H2        1.0  0.6368468322325498  0.5020593594526872  0.0459415540099144  1.0000
  H   H3        1.0  0.4264835828798823  0.8648464865982533  0.5331430505029857  1.0000
  H   H4        1.0  0.5685393768362701  0.48254670947790146  0.5487456219270825  1.0000
  H   H5        1.0  0.7088115933584049  0.9420312510337681  0.4090462466701865  1.0000
  H   H6        1.0  0.20494373876135796  0.7487502765725367  0.5402183448895812  1.0000
  H   H7        1.0  0.5709529024898075  0.19502606824971735  0.45713719094055705  1.0000
  H   H8        1.0  0.5310045729856938  0.6837598453275859  0.3316543735563755  1.0000
  H   H9        1.0  0.12585352291353047  0.3118075804086402  0.7677280651405454  1.0000
  H   H10       1.0  0.7583907903172076  0.28513357671909034  0.3739057774655521  1.0000
  H   H11       1.0  0.5018663955852389  0.6414507582085207  0.8240722536575049  1.0000
  H   H12       1.0  0.055421820376068354  0.35559437004849315  0.3711817339062691  1.0000
  O   O1        1.0  0.5790231589635368  0.903233049728442  0.4529083616216667  1.0000
  O   O2        1.0  0.3835762436501682  0.13312772056087852  0.390997257665731  1.0000
  O   O3        1.0  0.36616342747583985  0.469993220132892  0.14685665897559375  1.0000
  O   O4        1.0  0.11561514961067587  0.9416524907574058  0.5463444803026505  1.0000
  O   O5        1.0  0.04087059173616581  0.5634202503133565  0.319932309172259  1.0000
  O   O6        1.0  0.5652235271409154  0.8535295492038131  0.33312726972508244  1.0000
  O   O7        1.0  0.38926735194399953  0.05498184682801366  0.9129422960686497  1.0000
  O   O8        1.0  0.1023101017344743  0.9037459874525666  0.5919228096026927  1.0000
  O   O9        1.0  0.8500305864617985  0.004885365429800004  0.3706258379970677  1.0000
  O   O10       1.0  0.24754220194154186  0.8294055958394893  0.72321527893655  1.0000
data_image69
_chemical_formula_structural       Sr2Cu2H12O10
_chemical_formula_sum              "Sr2 Cu2 H12 O10"
_cell_length_a       6.296725
_cell_length_b       5.467378000000002
_cell_length_c       7.977295878227032
_cell_angle_alpha    72.20561901156641
_cell_angle_beta     90.0
_cell_angle_gamma    90.0

_space_group_name_H-M_alt    "P 1"
_space_group_IT_number       1

loop_
  _space_group_symop_operation_xyz
  'x, y, z'

loop_
  _atom_site_type_symbol
  _atom_site_label
  _atom_site_symmetry_multiplicity
  _atom_site_fract_x
  _atom_site_fract_y
  _atom_site_fract_z
  _atom_site_occupancy
  Sr  Sr1       1.0  0.2901870785281062  0.6531722262734547  0.645428852760233  1.0000
  Sr  Sr2       1.0  0.6274088308564387  0.1497845146805048  0.35658134150435217  1.0000
  Cu  Cu1       1.0  0.6344916699454188  0.4799349714885466  0.848833850963274  1.0000
  Cu  Cu2       1.0  0.04840287729166448  0.068937600357458  0.13948758994229138  1.0000
  H   H1        1.0  0.44378395564854145  0.5167219834402204  0.31744562881067395  1.0000
  H   H2        1.0  0.25505472102668136  0.6184768459061161  0.8531098621897399  1.0000
  H   H3        1.0  0.0030367040308192372  0.33358313143253326  0.7241907280404121  1.0000
  H   H4        1.0  0.6347035705111921  0.27448093704879284  0.4410684686154127  1.0000
  H   H5        1.0  0.8348055151291192  0.06426793395075947  0.2310686488635838  1.0000
  H   H6        1.0  0.9244591009337455  0.2535650415229611  0.23679146077483892  1.0000
  H   H7        1.0  0.669267330202274  0.33709289500257  0.7659352348127868  1.0000
  H   H8        1.0  0.3359965451527387  0.08413982857018709  0.37227591569535434  1.0000
  H   H9        1.0  0.10427479050122201  0.7786730662919581  0.6599085601046681  1.0000
  H   H10       1.0  0.0917317500570789  0.849374414072372  0.9276209621457383  1.0000
  H   H11       1.0  0.7696103579364717  0.556567304302007  0.49244060716591775  1.0000
  H   H12       1.0  0.4380006780847907  0.7213593125343323  0.05369585286825895  1.0000
  O   O1        1.0  0.02693815279053524  0.4669308262236882  0.2162323056254536  1.0000
  O   O2        1.0  0.6232961188070476  0.31852152780629694  0.2341819821158424  1.0000
  O   O3        1.0  0.22968846699222922  0.22639883507508785  0.9456428092089482  1.0000
  O   O4        1.0  0.6870405805530027  0.05512986716348678  0.9749215714400634  1.0000
  O   O5        1.0  0.7329117337067146  0.6587111949920654  0.39368786408590495  1.0000
  O   O6        1.0  0.7638115816516802  0.0044057369232177734  0.8601858569018077  1.0000
  O   O7        1.0  0.301654388429597  0.3313182988204062  0.353956369595835  1.0000
  O   O8        1.0  0.7303758207708597  0.9092802846571431  0.08095036342274398  1.0000
  O   O9        1.0  0.9485865798633313  0.2176202174014179  0.5883311105426401  1.0000
  O   O10       1.0  0.5115673950058408  0.9504321636632085  0.12987450568471104  1.0000
data_image70
_chemical_formula_structural       Sr2Cu2H12O10
_chemical_formula_sum              "Sr2 Cu2 H12 O10"
_cell_length_a       6.296725
_cell_length_b       5.467378000000002
_cell_length_c       7.977295878227032
_cell_angle_alpha    72.20561901156641
_cell_angle_beta     90.0
_cell_angle_gamma    90.0

_space_group_name_H-M_alt    "P 1"
_space_group_IT_number       1

loop_
  _space_group_symop_operation_xyz
  'x, y, z'

loop_
  _atom_site_type_symbol
  _atom_site_label
  _atom_site_symmetry_multiplicity
  _atom_site_fract_x
  _atom_site_fract_y
  _atom_site_fract_z
  _atom_site_occupancy
  Sr  Sr1       1.0  0.295582729682792  0.529761755024083  0.9351296853274107  1.0000
  Sr  Sr2       1.0  0.4418383235752117  0.714677187090274  0.2629176913324045  1.0000
  Cu  Cu1       1.0  0.2184380751568824  0.42290803883224726  0.01813718772609718  1.0000
  Cu  Cu2       1.0  0.9264676284510642  0.17677689995616674  0.6010318147018552  1.0000
  H   H1        1.0  0.7704360452480614  0.49054515338502824  0.9146742483135313  1.0000
  H   H2        1.0  0.1670763302827254  0.23189771722536534  0.4333374104462564  1.0000
  H   H3        1.0  0.7052295109024271  0.47713251784443855  0.2828143776860088  1.0000
  H   H4        1.0  0.021800720132887363  0.020566450897604227  0.4704090845771134  1.0000
  H   H5        1.0  0.03094683721428737  0.002258895430713892  0.5177355663618073  1.0000
  H   H6        1.0  0.6243937759427354  0.410558694973588  0.30520721431821585  1.0000
  H   H7        1.0  0.04303968948079273  0.6932122785947286  0.265024985987111  1.0000
  H   H8        1.0  0.8237891173921525  0.5929543357342482  0.22484477004036307  1.0000
  H   H9        1.0  0.9874951133970171  0.575501786719542  0.8440287276171148  1.0000
  H   H10       1.0  0.5067516111303121  0.7216196679510176  0.41446105705108494  1.0000
  H   H11       1.0  0.5600811559706926  0.7402051747776568  0.5799918852280825  1.0000
  H   H12       1.0  0.9333522012457252  0.4901815773919225  0.9335296517238021  1.0000
  O   O1        1.0  0.9223317076684907  0.00772473486722447  0.8916756797698326  1.0000
  O   O2        1.0  0.37197484029456973  0.4364507223945111  0.8735279106767848  1.0000
  O   O3        1.0  0.743650006595999  0.47748521620815154  0.6214318352285773  1.0000
  O   O4        1.0  0.06123587116599083  0.21870254527311772  0.0386047872598283  1.0000
  O   O5        1.0  0.07284515092032962  0.22285515978001058  0.6322045862145842  1.0000
  O   O6        1.0  0.9379211486084387  0.868770930217579  0.2868885880452581  1.0000
  O   O7        1.0  0.8397505920147523  0.2109090897720307  0.7741599027067423  1.0000
  O   O8        1.0  0.3677160360966809  0.9129551707301289  0.779616444837302  1.0000
  O   O9        1.0  0.22017639694968238  0.27219832537230104  0.08755020055104978  1.0000
  O   O10       1.0  0.7451193402448553  0.91080224578036  0.8903378096874803  1.0000
data_image71
_chemical_formula_structural       Sr2Cu2H12O10
_chemical_formula_sum              "Sr2 Cu2 H12 O10"
_cell_length_a       6.296725
_cell_length_b       5.467378000000002
_cell_length_c       7.977295878227032
_cell_angle_alpha    72.20561901156641
_cell_angle_beta     90.0
_cell_angle_gamma    90.0

_space_group_name_H-M_alt    "P 1"
_space_group_IT_number       1

loop_
  _space_group_symop_operation_xyz
  'x, y, z'

loop_
  _atom_site_type_symbol
  _atom_site_label
  _atom_site_symmetry_multiplicity
  _atom_site_fract_x
  _atom_site_fract_y
  _atom_site_fract_z
  _atom_site_occupancy
  Sr  Sr1       1.0  0.6430213872226886  0.393522776896134  0.3123587821610272  1.0000
  Sr  Sr2       1.0  0.6715218013850972  0.9296554894535802  0.2573463198932586  1.0000
  Cu  Cu1       1.0  0.8265067760366946  0.5954692456871271  0.048210151129751466  1.0000
  Cu  Cu2       1.0  0.4506386467255652  0.17267470597289503  0.4974730082321912  1.0000
  H   H1        1.0  0.8929420515196398  0.6034821290522814  0.7241408168338239  1.0000
  H   H2        1.0  0.029553233180195093  0.6764307589037344  0.8281742953695357  1.0000
  H   H3        1.0  0.8133923202985898  0.17308680899441242  0.4091883066575974  1.0000
  H   H4        1.0  0.38078443380072713  0.8398338358383626  0.4390719118528068  1.0000
  H   H5        1.0  0.4440188168664463  0.2173090628348291  0.3427890734747052  1.0000
  H   H6        1.0  0.6120302677154541  0.8707989468239248  0.1831182506866753  1.0000
  H   H7        1.0  0.3775185767444782  0.020488991984166205  0.32601154991425574  1.0000
  H   H8        1.0  0.35218408366199583  0.7122136079706252  0.9102132793050259  1.0000
  H   H9        1.0  0.7672881986945868  0.2015529905911535  0.6388768600299954  1.0000
  H   H10       1.0  0.27123129286337644  0.197992347413674  0.6651290289591998  1.0000
  H   H11       1.0  0.6109104785136878  0.11306388641241938  0.34135051257908344  1.0000
  H   H12       1.0  0.5440481156110764  0.6176172182895243  0.4467115728184581  1.0000
  O   O1        1.0  0.9184935644734651  0.8383920433116145  0.816606231383048  1.0000
  O   O2        1.0  0.30349222104996443  0.08324065105989575  0.2844808145891875  1.0000
  O   O3        1.0  0.06879066163673997  0.673154641110159  0.9115022475016303  1.0000
  O   O4        1.0  0.5504431467270479  0.6733332512667403  0.06828214769484475  1.0000
  O   O5        1.0  0.22042425171821378  0.8882930376566947  0.05027362032160454  1.0000
  O   O6        1.0  0.6907804377842695  0.8588154555764049  0.9130140940833371  1.0000
  O   O7        1.0  0.6818811466218904  0.9734835638664663  0.9585233970356057  1.0000
  O   O8        1.0  0.01549173757666722  0.19182571466080844  0.8697323338128626  1.0000
  O   O9        1.0  0.1099785216501914  0.6937540032959078  0.9515295892197173  1.0000
  O   O10       1.0  0.0685765212692786  0.9963531419052742  0.8551809173077345  1.0000
data_image72
_chemical_formula_structural       Sr2Cu2H12O10
_chemical_formula_sum              "Sr2 Cu2 H12 O10"
_cell_length_a       6.296725
_cell_length_b       5.467378000000002
_cell_length_c       7.977295878227032
_cell_angle_alpha    72.20561901156641
_cell_angle_beta     90.0
_cell_angle_gamma    90.0

_space_group_name_H-M_alt    "P 1"
_space_group_IT_number       1

loop_
  _space_group_symop_operation_xyz
  'x, y, z'

loop_
  _atom_site_type_symbol
  _atom_site_label
  _atom_site_symmetry_multiplicity
  _atom_site_fract_x
  _atom_site_fract_y
  _atom_site_fract_z
  _atom_site_occupancy
  Sr  Sr1       1.0  0.6638160183210857  0.26550130639225245  0.8019716738490388  1.0000
  Sr  Sr2       1.0  0.030626725230831653  0.378666476754006  0.5442831314139767  1.0000
  Cu  Cu1       1.0  0.008859760593622923  0.23770818155026063  0.04358734603738412  1.0000
  Cu  Cu2       1.0  0.3493948383256793  0.4022511332295835  0.24147680378519  1.0000
  H   H1        1.0  0.35346171690616757  0.305068850168027  0.7749674092046916  1.0000
  H   H2        1.0  0.7162833905313164  0.2776432541431859  0.9831340489909053  1.0000
  H   H3        1.0  0.19858222093898803  0.11492380313575268  0.7738305835518986  1.0000
  H   H4        1.0  0.45615818351507187  0.0791728813201189  0.7379152816720307  1.0000
  H   H5        1.0  0.7283537480398081  0.897717448649928  0.7536626697983593  1.0000
  H   H6        1.0  0.15274424070958048  0.33877157035749406  0.46796540450304747  1.0000
  H   H7        1.0  0.9082428413094021  0.027718124794773757  0.09309518182999454  1.0000
  H   H8        1.0  0.5338980711530894  0.654866156168282  0.798782411031425  1.0000
  H   H9        1.0  0.4908453037496656  0.975119280454237  0.2167706210166216  1.0000
  H   H10       1.0  0.8543963342672214  0.7875182451680303  0.8906290773302317  1.0000
  H   H11       1.0  0.821099906694144  0.7871350281639025  0.9539805145468563  1.0000
  H   H12       1.0  0.005135142710059881  0.7116243760101497  0.34162054397165775  1.0000
  O   O1        1.0  0.667056689155288  0.27488181041553617  0.768732424126938  1.0000
  O   O2        1.0  0.6369929579086602  0.7933071032166481  0.2806592002743855  1.0000
  O   O3        1.0  0.08844538498669863  0.2592417776977527  0.6243769361171871  1.0000
  O   O4        1.0  0.7642955428455025  0.08580512623302639  0.9181035545188934  1.0000
  O   O5        1.0  0.6170734571060166  0.5704137955326587  0.21616410908609396  1.0000
  O   O6        1.0  0.6298736407188699  0.27928196848370135  0.6771847047493793  1.0000
  O   O7        1.0  0.9040843910770491  0.541884042089805  0.8874421165455715  1.0000
  O   O8        1.0  0.8811467239283957  0.48320788447745144  0.7590339323505759  1.0000
  O   O9        1.0  0.5187385045865085  0.4944682625355199  0.7094577696407214  1.0000
  O   O10       1.0  0.4466783375100931  0.999818472424522  0.1754567251773551  1.0000
data_image73
_chemical_formula_structural       Sr2Cu2H12O10
_chemical_formula_sum              "Sr2 Cu2 H12 O10"
_cell_length_a       6.296725
_cell_length_b       5.467378000000002
_cell_length_c       7.977295878227032
_cell_angle_alpha    72.20561901156641
_cell_angle_beta     90.0
_cell_angle_gamma    90.0

_space_group_name_H-M_alt    "P 1"
_space_group_IT_number       1

loop_
  _space_group_symop_operation_xyz
  'x, y, z'

loop_
  _atom_site_type_symbol
  _atom_site_label
  _atom_site_symmetry_multiplicity
  _atom_site_fract_x
  _atom_site_fract_y
  _atom_site_fract_z
  _atom_site_occupancy
  Sr  Sr1       1.0  0.11723318014992401  0.6246841105166823  0.23904578352812678  1.0000
  Sr  Sr2       1.0  0.8749262165219989  0.7774972150218673  0.6823507426743163  1.0000
  Cu  Cu1       1.0  0.8265631038229913  0.9424806279712357  0.4965523475111695  1.0000
  Cu  Cu2       1.0  0.12609196733683348  0.7830751675646752  0.518683337373659  1.0000
  H   H1        1.0  0.5173453593160957  0.6478377570165321  0.1878436750266701  1.0000
  H   H2        1.0  0.4133087784284726  0.9959776800824329  0.33950719330459833  1.0000
  H   H3        1.0  0.3626376170432195  0.1799763161689043  0.6232151261065155  1.0000
  H   H4        1.0  0.5564233791083097  0.6077549310866743  0.49836748419329524  1.0000
  H   H5        1.0  0.08887297846376896  0.30785772460512817  0.6193478313507512  1.0000
  H   H6        1.0  0.9617502387263812  0.04994197154883295  0.2827651649713516  1.0000
  H   H7        1.0  0.5771175712579861  0.2926504156785086  0.3787451355601661  1.0000
  H   H8        1.0  0.2164785445202142  0.017126130405813456  0.37073859642259777  1.0000
  H   H9        1.0  0.12290208716876805  0.5811290187411942  0.9317714632488787  1.0000
  H   H10       1.0  0.057731438777409494  0.3903478332795203  0.8707325300201774  1.0000
  H   H11       1.0  0.13148618629202247  0.9115156722255051  0.380406524753198  1.0000
  H   H12       1.0  0.8230594117194414  0.8304325696080923  0.09300344157963991  1.0000
  O   O1        1.0  0.5034191699232906  0.29840393469203264  0.18631459947209805  1.0000
  O   O2        1.0  0.23519146023318172  0.6575015145353973  0.647156024351716  1.0000
  O   O3        1.0  0.41032429644837976  0.6689121926901862  0.2243167917476967  1.0000
  O   O4        1.0  0.8064826055197045  0.6393328881822526  0.7030236123246141  1.0000
  O   O5        1.0  0.8894515658903401  0.9382490071002394  0.7216071349321282  1.0000
  O   O6        1.0  0.9037435473874211  0.4857304710894823  0.5361172039411031  1.0000
  O   O7        1.0  0.17600979225244373  0.24512209743261337  0.03636952680972172  1.0000
  O   O8        1.0  0.2132746644783765  0.9221740821376443  0.26282293628901243  1.0000
  O   O9        1.0  0.0406745822110679  0.0885634008445777  0.5551485606411006  1.0000
  O   O10       1.0  0.885155917800148  0.43317695730365813  0.7519994245376438  1.0000
data_image74
_chemical_formula_structural       Sr2Cu2H12O10
_chemical_formula_sum              "Sr2 Cu2 H12 O10"
_cell_length_a       6.296725
_cell_length_b       5.467378000000002
_cell_length_c       7.977295878227032
_cell_angle_alpha    72.20561901156641
_cell_angle_beta     90.0
_cell_angle_gamma    90.0

_space_group_name_H-M_alt    "P 1"
_space_group_IT_number       1

loop_
  _space_group_symop_operation_xyz
  'x, y, z'

loop_
  _atom_site_type_symbol
  _atom_site_label
  _atom_site_symmetry_multiplicity
  _atom_site_fract_x
  _atom_site_fract_y
  _atom_site_fract_z
  _atom_site_occupancy
  Sr  Sr1       1.0  0.6100068141240627  0.006762714707292616  0.9997412360971794  1.0000
  Sr  Sr2       1.0  0.4250818472937681  0.01374654594110325  0.7382700751186348  1.0000
  Cu  Cu1       1.0  0.3947029570117593  0.8372822659439407  0.8818844821944367  1.0000
  Cu  Cu2       1.0  0.6045203094836324  0.15006074775010347  0.9768860305193812  1.0000
  H   H1        1.0  0.08027994376607239  0.716787121957168  0.36757144378498197  1.0000
  H   H2        1.0  0.9605303619755432  0.9795923882629722  0.7807421777397394  1.0000
  H   H3        1.0  0.48250778182409704  0.6783962063491344  0.22401685663498938  1.0000
  H   H4        1.0  0.44116115383803844  0.14158613234758377  0.07962874555960298  1.0000
  H   H5        1.0  0.5814136097324081  0.5954111232422292  0.5912530451314524  1.0000
  H   H6        1.0  0.6546821715310216  0.15911134704947472  0.6109456587582827  1.0000
  H   H7        1.0  0.9058558777323924  0.9507622929522768  0.5635815699934028  1.0000
  H   H8        1.0  0.7131912418408319  0.6540382355451584  0.2829229442868382  1.0000
  H   H9        1.0  0.5545956543646753  0.6993273114785552  0.3094635815359652  1.0000
  H   H10       1.0  0.9091800441965461  0.13336132047697902  0.23480598744936287  1.0000
  H   H11       1.0  0.17234990326687694  0.7809275848558173  0.51248140912503  1.0000
  H   H12       1.0  0.5302884299308062  0.0474428990855813  0.8349546995013952  1.0000
  O   O1        1.0  0.3013981815893203  0.20482910386635922  0.7628929859492928  1.0000
  O   O2        1.0  0.80124636227265  0.15633382205851376  0.20478185371030122  1.0000
  O   O3        1.0  0.08059861930087209  0.9308843308099313  0.04752128210384399  1.0000
  O   O4        1.0  0.9919962587300688  0.6082308576442301  0.3855888764373958  1.0000
  O   O5        1.0  0.5271948004083242  0.42068900307640433  0.45176650775101734  1.0000
  O   O6        1.0  0.3513688393868506  0.8471776670776308  0.510044666880276  1.0000
  O   O7        1.0  0.46983412269037217  0.8031039163470268  0.8977514791258727  1.0000
  O   O8        1.0  0.710988231759984  0.42309498274698853  0.009574829251505435  1.0000
  O   O9        1.0  0.19241172459442168  0.8573532146692742  0.5469488886301406  1.0000
  O   O10       1.0  0.5914845048100688  0.13528593350201845  0.4518006093567237  1.0000
data_image75
_chemical_formula_structural       Sr2Cu2H12O10
_chemical_formula_sum              "Sr2 Cu2 H12 O10"
_cell_length_a       6.296725
_cell_length_b       5.467378000000002
_cell_length_c       7.977295878227032
_cell_angle_alpha    72.20561901156641
_cell_angle_beta     90.0
_cell_angle_gamma    90.0

_space_group_name_H-M_alt    "P 1"
_space_group_IT_number       1

loop_
  _space_group_symop_operation_xyz
  'x, y, z'

loop_
  _atom_site_type_symbol
  _atom_site_label
  _atom_site_symmetry_multiplicity
  _atom_site_fract_x
  _atom_site_fract_y
  _atom_site_fract_z
  _atom_site_occupancy
  Sr  Sr1       1.0  0.7095802255789749  0.12739076639991254  0.13568055955693126  1.0000
  Sr  Sr2       1.0  0.9058499315869994  0.6596574332215823  0.9308601870434359  1.0000
  Cu  Cu1       1.0  0.11781329661607742  0.6988857529941015  0.9161698141251691  1.0000
  Cu  Cu2       1.0  0.09255686006508768  0.31081661116331816  0.4661714369431138  1.0000
  H   H1        1.0  0.5908490415895358  0.8020704954396933  0.7681220732629299  1.0000
  H   H2        1.0  0.7813154864124954  0.30903490458149463  0.7489121244288981  1.0000
  H   H3        1.0  0.8127901972038671  0.2651570364832878  0.5200661744456738  1.0000
  H   H4        1.0  0.6892570424824953  0.684053132776171  0.9480673866346478  1.0000
  H   H5        1.0  0.8163555642240681  0.2199609864037484  0.6650853117462248  1.0000
  H   H6        1.0  0.060204136301763356  0.38478185213170946  0.6354116932488978  1.0000
  H   H7        1.0  0.0469169020652771  0.49104681535391137  0.07758574980834965  1.0000
  H   H8        1.0  0.6626482495339587  0.8605673620477319  0.4999803185928613  1.0000
  H   H9        1.0  0.5466610374860466  0.9150062063708901  0.3814702043309808  1.0000
  H   H10       1.0  0.8295134616782889  0.46914529986679554  0.8909286028938368  1.0000
  H   H11       1.0  0.6355581576935947  0.339305815869011  0.4765239078551531  1.0000
  H   H12       1.0  0.8790778536349535  0.5717860185541213  0.09888432640582323  1.0000
  O   O1        1.0  0.12902085598034319  0.5341915699245874  0.44786076940363273  1.0000
  O   O2        1.0  0.9828313109464943  0.42005147971212864  0.5608880016952753  1.0000
  O   O3        1.0  0.10818496625870466  0.5047415339940926  0.8915803207200952  1.0000
  O   O4        1.0  0.5824337026569992  0.345978403929621  0.17406038532499224  1.0000
  O   O5        1.0  0.7784174391417764  0.6045167678967118  0.957271949017013  1.0000
  O   O6        1.0  0.6510904493043199  0.30894765770062804  0.45040520903421566  1.0000
  O   O7        1.0  0.3378825248219073  0.12500613392330706  0.3190805863305286  1.0000
  O   O8        1.0  0.40983519761357456  0.7289837735006586  0.9456670907093212  1.0000
  O   O9        1.0  0.45615480325068347  0.9539534313807962  0.06062422235845588  1.0000
  O   O10       1.0  0.6995574867905816  0.6533384887734428  0.38049351202789694  1.0000
data_image76
_chemical_formula_structural       Sr2Cu2H12O10
_chemical_formula_sum              "Sr2 Cu2 H12 O10"
_cell_length_a       6.296725
_cell_length_b       5.467378000000002
_cell_length_c       7.977295878227032
_cell_angle_alpha    72.20561901156641
_cell_angle_beta     90.0
_cell_angle_gamma    90.0

_space_group_name_H-M_alt    "P 1"
_space_group_IT_number       1

loop_
  _space_group_symop_operation_xyz
  'x, y, z'

loop_
  _atom_site_type_symbol
  _atom_site_label
  _atom_site_symmetry_multiplicity
  _atom_site_fract_x
  _atom_site_fract_y
  _atom_site_fract_z
  _atom_site_occupancy
  Sr  Sr1       1.0  0.6022828138084151  0.08077678550034761  0.6439225466456264  1.0000
  Sr  Sr2       1.0  0.19277309530298226  0.09607732953736559  0.5150648427661508  1.0000
  Cu  Cu1       1.0  0.9189797805156559  0.5374968534451909  0.7001501664781244  1.0000
  Cu  Cu2       1.0  0.8961537096183747  0.9883830929175019  0.21746624680235982  1.0000
  H   H1        1.0  0.06521621206775308  0.7706844594795257  0.1695554554462433  1.0000
  H   H2        1.0  0.8153436909196898  0.29222231241874397  0.3610768751241267  1.0000
  H   H3        1.0  0.7408123577479273  0.22626687586307526  0.509244117885828  1.0000
  H   H4        1.0  0.2235029609873891  0.10840284684672952  0.8859860352240503  1.0000
  H   H5        1.0  0.6643594611668959  0.8950563797261566  0.520178853534162  1.0000
  H   H6        1.0  0.901195245445706  0.2802213989198208  0.6692515821196139  1.0000
  H   H7        1.0  0.8648738251067698  0.22604734566994011  0.24250712073990144  1.0000
  H   H8        1.0  0.7151228896109387  0.5418162397108972  0.7113283346407115  1.0000
  H   H9        1.0  0.7534150860738009  0.04887925705406815  0.5600397838279605  1.0000
  H   H10       1.0  0.8072885377332568  0.40771777485497296  0.7838537252973765  1.0000
  H   H11       1.0  0.33479900984093547  0.45993880345486104  0.504760563839227  1.0000
  H   H12       1.0  0.3450926416553557  0.1319955517537892  0.13762041833251715  1.0000
  O   O1        1.0  0.6026200633205008  0.5960044239182025  0.7716755524161272  1.0000
  O   O2        1.0  0.6663879090920091  0.8666512044146657  0.16997674689628184  1.0000
  O   O3        1.0  0.33184238942340016  0.8195317548379535  0.9562179368222132  1.0000
  O   O4        1.0  0.21499209199100733  0.1637817429145798  0.5695996197173372  1.0000
  O   O5        1.0  0.276943983102683  0.9687022073194385  0.17543395792745287  1.0000
  O   O6        1.0  0.3081164921168238  0.16450904309749603  0.995516602502903  1.0000
  O   O7        1.0  0.8408548156730831  0.5575639051385224  0.6693097506213235  1.0000
  O   O8        1.0  0.2932233448373154  0.8493612008169293  0.4987115495605394  1.0000
  O   O9        1.0  0.750910425267648  0.6883169286302291  0.9446301476855297  1.0000
  O   O10       1.0  0.6412276951014064  0.0828575846971944  0.25136475393082947  1.0000
data_image77
_chemical_formula_structural       Sr2Cu2H12O10
_chemical_formula_sum              "Sr2 Cu2 H12 O10"
_cell_length_a       6.296725
_cell_length_b       5.467378000000002
_cell_length_c       7.977295878227032
_cell_angle_alpha    72.20561901156641
_cell_angle_beta     90.0
_cell_angle_gamma    90.0

_space_group_name_H-M_alt    "P 1"
_space_group_IT_number       1

loop_
  _space_group_symop_operation_xyz
  'x, y, z'

loop_
  _atom_site_type_symbol
  _atom_site_label
  _atom_site_symmetry_multiplicity
  _atom_site_fract_x
  _atom_site_fract_y
  _atom_site_fract_z
  _atom_site_occupancy
  Sr  Sr1       1.0  0.43001455848570913  0.36486896802671254  0.5042745391838253  1.0000
  Sr  Sr2       1.0  0.2620327885088045  0.8888414618559182  0.2893464142398443  1.0000
  Cu  Cu1       1.0  0.3948770242277533  0.8298568323371001  0.2683598388102837  1.0000
  Cu  Cu2       1.0  0.2116546598263085  0.855963640846312  0.4733276925981045  1.0000
  H   H1        1.0  0.525559421395883  0.2305233816150576  0.24661296093836427  1.0000
  H   H2        1.0  0.06366567348595709  0.2985299474094063  0.5020692171528935  1.0000
  H   H3        1.0  0.9482695944607258  0.6067096665501595  0.7924649906344712  1.0000
  H   H4        1.0  0.34901949763298035  0.5442649703472853  0.7344946702942252  1.0000
  H   H5        1.0  0.06358004128560424  0.712753250845708  0.955560079193674  1.0000
  H   H6        1.0  0.8328953427844681  0.34343108907341957  0.08375435136258602  1.0000
  H   H7        1.0  0.28412995513645  0.17165164096513763  0.6083285251515917  1.0000
  H   H8        1.0  0.1493337171850726  0.12751279724761844  0.4222872976679355  1.0000
  H   H9        1.0  0.6822033755015582  0.18587658955948427  0.9056903305463493  1.0000
  H   H10       1.0  0.6280618652235717  0.4736740217776969  0.8765543281333521  1.0000
  H   H11       1.0  0.018544661812484264  0.7472227045800537  0.2893035064917058  1.0000
  H   H12       1.0  0.778467477299273  0.9865110814571381  0.5554797258228064  1.0000
  O   O1        1.0  0.2534376735857222  0.9310284283419605  0.10638088989071548  1.0000
  O   O2        1.0  0.5867172991856933  0.3981390492990613  0.4474823387572542  1.0000
  O   O3        1.0  0.6323335319757462  0.19253919529000996  0.6845583739923313  1.0000
  O   O4        1.0  0.28340067504905164  0.5999221560778096  0.2357772940886207  1.0000
  O   O5        1.0  0.8855574437184259  0.10908126505091786  0.8351826335747319  1.0000
  O   O6        1.0  0.20245837839320302  0.7784846059512347  0.0031303590803872794  1.0000
  O   O7        1.0  0.28816171013750136  0.5415338180027902  0.3840742665634025  1.0000
  O   O8        1.0  0.5037306942394935  0.6718877980019897  0.3461600530426949  1.0000
  O   O9        1.0  0.56221379438648  0.42043136432766914  0.6217593075707555  1.0000
  O   O10       1.0  0.8637262509582797  0.6838714589830488  0.5835938000818714  1.0000
data_image78
_chemical_formula_structural       Sr2Cu2H12O10
_chemical_formula_sum              "Sr2 Cu2 H12 O10"
_cell_length_a       6.296725
_cell_length_b       5.467378000000002
_cell_length_c       7.977295878227032
_cell_angle_alpha    72.20561901156641
_cell_angle_beta     90.0
_cell_angle_gamma    90.0

_space_group_name_H-M_alt    "P 1"
_space_group_IT_number       1

loop_
  _space_group_symop_operation_xyz
  'x, y, z'

loop_
  _atom_site_type_symbol
  _atom_site_label
  _atom_site_symmetry_multiplicity
  _atom_site_fract_x
  _atom_site_fract_y
  _atom_site_fract_z
  _atom_site_occupancy
  Sr  Sr1       1.0  0.5524970436817966  0.3720259068068117  0.9508332888362929  1.0000
  Sr  Sr2       1.0  0.26201706076972187  0.556322812102735  0.5204775641905144  1.0000
  Cu  Cu1       1.0  0.8088654892053455  0.43633105873595923  0.16092647799814586  1.0000
  Cu  Cu2       1.0  0.7774128571618348  0.2779664278496057  0.16112096258439124  1.0000
  H   H1        1.0  0.3147938041947782  0.09252649825066328  0.7181982947513461  1.0000
  H   H2        1.0  0.17867538903374225  0.4179552844725549  0.746731529943645  1.0000
  H   H3        1.0  0.6912078798050061  0.30487949401140213  0.7031722995452583  1.0000
  H   H4        1.0  0.9287442211061716  0.8796075698919594  0.4694728597532958  1.0000
  H   H5        1.0  0.1350184899638407  0.30873597774188966  0.38340453372802585  1.0000
  H   H6        1.0  0.7520491329487413  0.35829161130823195  0.26461170380935073  1.0000
  H   H7        1.0  0.16377469940925948  0.8802087901858613  0.9456320694589522  1.0000
  H   H8        1.0  0.45783389441203326  0.7920191544108093  0.33661903836764395  1.0000
  H   H9        1.0  0.924125109333545  0.4378552419366315  0.4614582066424191  1.0000
  H   H10       1.0  0.8065819521434605  0.1573440278880298  0.49860348319634795  1.0000
  H   H11       1.0  0.6152283512055874  0.14725663990247995  0.38872438785620034  1.0000
  H   H12       1.0  0.1818085629492998  0.18560694437474012  0.16490362863987684  1.0000
  O   O1        1.0  0.27885684388456866  0.3969055498891976  0.04600086866412312  1.0000
  O   O2        1.0  0.7971354452893138  0.09878112399019301  0.8309112774441019  1.0000
  O   O3        1.0  0.8317604088224471  0.5087723536489648  0.15492706757504493  1.0000
  O   O4        1.0  0.4001749219605699  0.40688574488740414  0.8215233020018786  1.0000
  O   O5        1.0  0.7233232154103462  0.7527808607555926  0.6253808168621617  1.0000
  O   O6        1.0  0.0689457330154255  0.5078238707501441  0.2009728758421261  1.0000
  O   O7        1.0  0.8168752451892942  0.8480167249217629  0.3176551645301515  1.0000
  O   O8        1.0  0.3407616629265249  0.37320204149000347  0.2138149505481124  1.0000
  O   O9        1.0  0.012766861531417817  0.8945866385765839  0.611637898022309  1.0000
  O   O10       1.0  0.493391019939736  0.696329208672978  0.9148298774380237  1.0000
data_image79
_chemical_formula_structural       Sr2Cu2H12O10
_chemical_formula_sum              "Sr2 Cu2 H12 O10"
_cell_length_a       6.296725
_cell_length_b       5.467378000000002
_cell_length_c       7.977295878227032
_cell_angle_alpha    72.20561901156641
_cell_angle_beta     90.0
_cell_angle_gamma    90.0

_space_group_name_H-M_alt    "P 1"
_space_group_IT_number       1

loop_
  _space_group_symop_operation_xyz
  'x, y, z'

loop_
  _atom_site_type_symbol
  _atom_site_label
  _atom_site_symmetry_multiplicity
  _atom_site_fract_x
  _atom_site_fract_y
  _atom_site_fract_z
  _atom_site_occupancy
  Sr  Sr1       1.0  0.3180251510348171  0.29280777752865106  0.32994994171895087  1.0000
  Sr  Sr2       1.0  0.900596234598197  0.7031397380051203  0.5529174496186897  1.0000
  Cu  Cu1       1.0  0.7972708612214774  0.5099205583683215  0.5836080831941217  1.0000
  Cu  Cu2       1.0  0.3612291752360761  0.31143606593832374  0.9508551182225347  1.0000
  H   H1        1.0  0.4133128388784826  0.9326753851491958  0.5370908395852894  1.0000
  H   H2        1.0  0.6259854875970632  0.8567624748684466  0.36660511139780283  1.0000
  H   H3        1.0  0.9356580292806029  0.2609616294503212  0.11021643318235874  1.0000
  H   H4        1.0  0.9237248906865716  0.2436992754228413  0.5802263889927417  1.0000
  H   H5        1.0  0.8178843075293116  0.5581726324744523  0.7798234549118206  1.0000
  H   H6        1.0  0.7361963805742562  0.9765227434691042  0.10791975818574429  1.0000
  H   H7        1.0  0.026524148415774107  0.9360955359879881  0.32881141430698335  1.0000
  H   H8        1.0  0.3546440175268799  0.5846589882858098  0.513647047104314  1.0000
  H   H9        1.0  0.21378655964508653  0.9467565652739722  0.1504567819647491  1.0000
  H   H10       1.0  0.0388622609898448  0.994081714306958  0.8742496529594064  1.0000
  H   H11       1.0  0.724212717730552  0.43517552758567035  0.412147497292608  1.0000
  H   H12       1.0  0.7854940909892321  0.10959048522636294  0.0366481663659215  1.0000
  O   O1        1.0  0.28343737838440575  0.8387954945501406  0.6484914756729268  1.0000
  O   O2        1.0  0.565796141512692  0.2208832036703825  0.06128725525923073  1.0000
  O   O3        1.0  0.7093152925372124  0.06613258175639203  0.38793541997438297  1.0000
  O   O4        1.0  0.9432235108688474  0.9552758510690182  0.17122828221181408  1.0000
  O   O5        1.0  0.39531415450619534  0.3429099638015032  0.8124953377227939  1.0000
  O   O6        1.0  0.9843269985867664  0.26652861665934324  0.7824856980005279  1.0000
  O   O7        1.0  0.1192220852826722  0.03825679863803089  0.4187087941245409  1.0000
  O   O8        1.0  0.48803530720761046  0.9630932949949056  0.06144430162385106  1.0000
  O   O9        1.0  0.9199609872885048  0.7370062418049201  0.1528301813523285  1.0000
  O   O10       1.0  0.7552610239581554  0.1475112121552229  0.014971492229960859  1.0000
data_image80
_chemical_formula_structural       Sr2Cu2H12O10
_chemical_formula_sum              "Sr2 Cu2 H12 O10"
_cell_length_a       6.296725
_cell_length_b       5.467378000000002
_cell_length_c       7.977295878227032
_cell_angle_alpha    72.20561901156641
_cell_angle_beta     90.0
_cell_angle_gamma    90.0

_space_group_name_H-M_alt    "P 1"
_space_group_IT_number       1

loop_
  _space_group_symop_operation_xyz
  'x, y, z'

loop_
  _atom_site_type_symbol
  _atom_site_label
  _atom_site_symmetry_multiplicity
  _atom_site_fract_x
  _atom_site_fract_y
  _atom_site_fract_z
  _atom_site_occupancy
  Sr  Sr1       1.0  0.09504665184067562  0.6469099084497429  0.14297201880253851  1.0000
  Sr  Sr2       1.0  0.19632100558374077  0.07405941153410822  0.5497429052484222  1.0000
  Cu  Cu1       1.0  0.1483399646822363  0.46409603441134095  0.5427908061028575  1.0000
  Cu  Cu2       1.0  0.951017166255042  0.6990050310268998  0.1277079617138952  1.0000
  H   H1        1.0  0.6331515910569578  0.6087535475380719  0.8927180399186909  1.0000
  H   H2        1.0  0.7469206057721749  0.9403009437955916  0.7899981327354908  1.0000
  H   H3        1.0  0.9458111946005374  0.12774084694683552  0.25772444484755397  1.0000
  H   H4        1.0  0.6462608417496085  0.8509890804998577  0.4973724177107215  1.0000
  H   H5        1.0  0.19876450730953366  0.051461387309245765  0.22566584474407136  1.0000
  H   H6        1.0  0.4262919353786856  0.04610418144147843  0.6192557578906417  1.0000
  H   H7        1.0  0.62631741099176  0.5585938943549991  0.20864585079834796  1.0000
  H   H8        1.0  0.515064550563693  0.17073396407067776  0.040206441190093756  1.0000
  H   H9        1.0  0.04834799515083432  0.3343074637959944  0.22541196458041668  1.0000
  H   H10       1.0  0.052115741185843945  0.6356070833280683  0.5423466151114553  1.0000
  H   H11       1.0  0.696456705685705  0.33892096974886954  0.04709846246987581  1.0000
  H   H12       1.0  0.9331939010880888  0.187022321857512  0.9419096000492573  1.0000
  O   O1        1.0  0.7390792206279002  0.732363986375276  0.35924485290888697  1.0000
  O   O2        1.0  0.9539071917533875  0.23064800072461367  0.48582399205770344  1.0000
  O   O3        1.0  0.5189149267971516  0.8513818486171658  0.135365316120442  1.0000
  O   O4        1.0  0.7616911698132753  0.11039973341394216  0.22776244475971907  1.0000
  O   O5        1.0  0.7452371775871143  0.801647889893502  0.05131502946642286  1.0000
  O   O6        1.0  0.6993914790218696  0.5388358037453145  0.07092571735847741  1.0000
  O   O7        1.0  0.990858499717433  0.9429221046157181  0.5562794612778816  1.0000
  O   O8        1.0  0.2348098549991846  0.34524754725862294  0.20094260398764163  1.0000
  O   O9        1.0  0.7250706501945388  0.5844256263953866  0.4670221463602502  1.0000
  O   O10       1.0  0.7025751458713785  0.6890061862068251  0.22476186230778694  1.0000
data_image81
_chemical_formula_structural       Sr2Cu2H12O10
_chemical_formula_sum              "Sr2 Cu2 H12 O10"
_cell_length_a       6.296725
_cell_length_b       5.467378000000002
_cell_length_c       7.977295878227032
_cell_angle_alpha    72.20561901156641
_cell_angle_beta     90.0
_cell_angle_gamma    90.0

_space_group_name_H-M_alt    "P 1"
_space_group_IT_number       1

loop_
  _space_group_symop_operation_xyz
  'x, y, z'

loop_
  _atom_site_type_symbol
  _atom_site_label
  _atom_site_symmetry_multiplicity
  _atom_site_fract_x
  _atom_site_fract_y
  _atom_site_fract_z
  _atom_site_occupancy
  Sr  Sr1       1.0  0.35281990363728255  0.9381717398937326  0.19766930997138843  1.0000
  Sr  Sr2       1.0  0.964581271429779  0.7998183313757181  0.008383996260818094  1.0000
  Cu  Cu1       1.0  0.8674048015382141  0.24620340147521347  0.8817421744461171  1.0000
  Cu  Cu2       1.0  0.6835577865131199  0.8942998296115547  0.8102224196773022  1.0000
  H   H1        1.0  0.7025197038892657  0.7178949711378664  0.8929991696495563  1.0000
  H   H2        1.0  0.9827123210998252  0.7992249906528741  0.8612805088050663  1.0000
  H   H3        1.0  0.11872794583905488  0.1654507890343666  0.7352279452607036  1.0000
  H   H4        1.0  0.8706806190311909  0.4707280555739999  0.4731347479391843  1.0000
  H   H5        1.0  0.46604317682795227  0.057924108929000795  0.6163916533114389  1.0000
  H   H6        1.0  0.0758728840155527  0.8777647508541122  0.714357590302825  1.0000
  H   H7        1.0  0.6633869245706592  0.34832989785354584  0.8295100668328814  1.0000
  H   H8        1.0  0.1658540058415383  0.23180620651692152  0.9776699030771852  1.0000
  H   H9        1.0  0.16180310025811195  0.1189669429732021  0.22574541112408042  1.0000
  H   H10       1.0  0.5664011561311781  0.4738781626801938  0.23209816170856357  1.0000
  H   H11       1.0  0.1380503554828465  0.33827216853387654  0.5220967149361968  1.0000
  H   H12       1.0  0.06289017386734486  0.9141132226213813  0.1828467734158039  1.0000
  O   O1        1.0  0.49819236106122844  0.10964186460478231  0.7095092593226582  1.0000
  O   O2        1.0  0.22322103008627892  0.14752721064724028  0.3314394698245451  1.0000
  O   O3        1.0  0.03329472243785858  0.04723729603574611  0.8777841929404531  1.0000
  O   O4        1.0  0.18247163540218025  0.06907733040861785  0.3718684718478471  1.0000
  O   O5        1.0  0.7077063460601494  0.44906338956207037  0.3805811974930293  1.0000
  O   O6        1.0  0.7800849929917604  0.9868401868734509  0.2820529442105908  1.0000
  O   O7        1.0  0.1508706048480235  0.6646895620506257  0.40132405795156956  1.0000
  O   O8        1.0  0.8868100043328013  0.8260089983232319  0.32118731539230794  1.0000
  O   O9        1.0  0.24492607300635427  0.5520547456908389  0.7525985832908191  1.0000
  O   O10       1.0  0.30491308914497495  0.9022470563650131  0.11326778621878475  1.0000
data_image82
_chemical_formula_structural       Sr2Cu2H12O10
_chemical_formula_sum              "Sr2 Cu2 H12 O10"
_cell_length_a       6.296725
_cell_length_b       5.467378000000002
_cell_length_c       7.977295878227032
_cell_angle_alpha    72.20561901156641
_cell_angle_beta     90.0
_cell_angle_gamma    90.0

_space_group_name_H-M_alt    "P 1"
_space_group_IT_number       1

loop_
  _space_group_symop_operation_xyz
  'x, y, z'

loop_
  _atom_site_type_symbol
  _atom_site_label
  _atom_site_symmetry_multiplicity
  _atom_site_fract_x
  _atom_site_fract_y
  _atom_site_fract_z
  _atom_site_occupancy
  Sr  Sr1       1.0  0.6340332368854433  0.4664910827705171  0.9163006957387552  1.0000
  Sr  Sr2       1.0  0.6748060612153495  0.487853174272459  0.7631672125135083  1.0000
  Cu  Cu1       1.0  0.1503910052124411  0.6829472405370325  0.771592509932816  1.0000
  Cu  Cu2       1.0  0.08693140395916998  0.7269130984786898  0.7641105898655951  1.0000
  H   H1        1.0  0.3066915771923959  0.06078743748366833  0.47876127157360315  1.0000
  H   H2        1.0  0.5597442499129102  0.04747633193619549  0.5250481446273625  1.0000
  H   H3        1.0  0.6797867397544906  0.07750442251563072  0.9329242161475122  1.0000
  H   H4        1.0  0.09824343211948872  0.5801735101267695  0.13432123931124806  1.0000
  H   H5        1.0  0.8183266441337764  0.2534785962780006  0.15542398707475513  1.0000
  H   H6        1.0  0.0877565355040133  0.5872051508631557  0.6565455351956189  1.0000
  H   H7        1.0  0.8921753161412198  0.03276035713497549  0.040655504824826494  1.0000
  H   H8        1.0  0.963115924037993  0.7998821577057242  0.286970735527575  1.0000
  H   H9        1.0  0.8921856097877026  0.06892304637585767  0.8440939988940954  1.0000
  H   H10       1.0  0.9057888914830983  0.06757165468297899  0.6964444862678647  1.0000
  H   H11       1.0  0.05414675921201706  0.9802771839313209  0.9632370853796601  1.0000
  H   H12       1.0  0.10330680897459388  0.19642553990706801  0.49673078767955303  1.0000
  O   O1        1.0  0.36800388133269735  0.8762145883229095  0.9609092583414167  1.0000
  O   O2        1.0  0.44863991625607014  0.4068473866209388  0.7854015217162669  1.0000
  O   O3        1.0  0.4135563534218818  0.5814888557069935  0.4531084704831301  1.0000
  O   O4        1.0  0.9111323235556483  0.05309060262516141  0.7083455841057003  1.0000
  O   O5        1.0  0.5293472762277815  0.8701275698840618  0.13060601189135923  1.0000
  O   O6        1.0  0.9354322237195447  0.9831702481023967  0.13507620102609508  1.0000
  O   O7        1.0  0.9595075876568444  0.7874659113585949  0.4772639744915068  1.0000
  O   O8        1.0  0.5192946228489745  0.9755717841908336  0.21291569445747882  1.0000
  O   O9        1.0  0.13913615379715338  0.05049480847810628  0.8572047491907142  1.0000
  O   O10       1.0  0.9912741406151326  0.8699180037947372  0.9828331095632166  1.0000
data_image83
_chemical_formula_structural       Sr2Cu2H12O10
_chemical_formula_sum              "Sr2 Cu2 H12 O10"
_cell_length_a       6.296725
_cell_length_b       5.467378000000002
_cell_length_c       7.977295878227032
_cell_angle_alpha    72.20561901156641
_cell_angle_beta     90.0
_cell_angle_gamma    90.0

_space_group_name_H-M_alt    "P 1"
_space_group_IT_number       1

loop_
  _space_group_symop_operation_xyz
  'x, y, z'

loop_
  _atom_site_type_symbol
  _atom_site_label
  _atom_site_symmetry_multiplicity
  _atom_site_fract_x
  _atom_site_fract_y
  _atom_site_fract_z
  _atom_site_occupancy
  Sr  Sr1       1.0  0.9015946721192449  0.8169950411829632  0.8445289613009663  1.0000
  Sr  Sr2       1.0  0.1223434283019742  0.3416556351003237  0.05930287600494921  1.0000
  Cu  Cu1       1.0  0.5220259828492999  0.40279622096568346  0.7599225485464558  1.0000
  Cu  Cu2       1.0  0.5184199002105743  0.7408894731197506  0.4677255603019148  1.0000
  H   H1        1.0  0.8097030271310359  0.018488989444449544  0.3478569285944104  1.0000
  H   H2        1.0  0.7638551803538576  0.5956325980369002  0.5989676131866872  1.0000
  H   H3        1.0  0.18323254806455225  0.5074273720383644  0.036152519285678864  1.0000
  H   H4        1.0  0.46238366328179836  0.5598922502249479  0.8460225330200046  1.0000
  H   H5        1.0  0.30398629477713257  0.17968262743670493  0.21634346479550004  1.0000
  H   H6        1.0  0.15473649004707113  0.47152926959097385  0.429522723890841  1.0000
  H   H7        1.0  0.04285811522277072  0.1845187726430595  0.04310336403432302  1.0000
  H   H8        1.0  0.7767617100616917  0.8291759341955185  0.3988580785226077  1.0000
  H   H9        1.0  0.7585767917335033  0.5623675975657534  0.00118226557970047  1.0000
  H   H10       1.0  0.9734610537998378  0.3588119972846471  0.41856320132501423  1.0000
  H   H11       1.0  0.8770235027186573  0.43587598064914346  0.7085217898711562  1.0000
  H   H12       1.0  0.12866646563634276  0.444283131044358  0.6339624878019094  1.0000
  O   O1        1.0  0.3841238170280121  0.609485078137368  0.7715279051917605  1.0000
  O   O2        1.0  0.9317663633264601  0.6143357136752456  0.8654560025315732  1.0000
  O   O3        1.0  0.033655651612207294  0.9722107994602993  0.37017841695342213  1.0000
  O   O4        1.0  0.8435832214308903  0.7202527413610369  0.4094320002477616  1.0000
  O   O5        1.0  0.2790821279922966  0.8106233109720051  0.6453826026208844  1.0000
  O   O6        1.0  0.60508687060792  0.5252813654951751  0.12408016886911355  1.0000
  O   O7        1.0  0.17216547502903268  0.2082727043889463  0.11162596722715534  1.0000
  O   O8        1.0  0.7906258002039976  0.7645221803104505  0.743813868961297  1.0000
  O   O9        1.0  0.49007554186391644  0.5816921276709763  0.27892580250045285  1.0000
  O   O10       1.0  0.902114689029986  0.40977684454992414  0.2653204045491293  1.0000
data_image84
_chemical_formula_structural       Sr2Cu2H12O10
_chemical_formula_sum              "Sr2 Cu2 H12 O10"
_cell_length_a       6.296725
_cell_length_b       5.467378000000002
_cell_length_c       7.977295878227032
_cell_angle_alpha    72.20561901156641
_cell_angle_beta     90.0
_cell_angle_gamma    90.0

_space_group_name_H-M_alt    "P 1"
_space_group_IT_number       1

loop_
  _space_group_symop_operation_xyz
  'x, y, z'

loop_
  _atom_site_type_symbol
  _atom_site_label
  _atom_site_symmetry_multiplicity
  _atom_site_fract_x
  _atom_site_fract_y
  _atom_site_fract_z
  _atom_site_occupancy
  Sr  Sr1       1.0  0.2579321524244733  0.5721127916185651  0.6727037942328025  1.0000
  Sr  Sr2       1.0  0.7578997015370987  0.2505263897473924  0.8388639573531691  1.0000
  Cu  Cu1       1.0  0.7626517855096608  0.7685319194570184  0.8213861588155851  1.0000
  Cu  Cu2       1.0  0.3702502914238721  0.6843226947821677  0.47302895318716764  1.0000
  H   H1        1.0  0.763084527105093  0.4940020109061152  0.3970775615889579  1.0000
  H   H2        1.0  0.25981336447875947  0.17148539575282484  0.058021978475153446  1.0000
  H   H3        1.0  0.3806862416677177  0.7116997390985489  0.7197082871571183  1.0000
  H   H4        1.0  0.580632290802896  0.7791595319285989  0.409998775459826  1.0000
  H   H5        1.0  0.7071763194981031  0.2534725375007838  0.5460888486122712  1.0000
  H   H6        1.0  0.34854583855485544  0.5825831501279026  0.8834497267380357  1.0000
  H   H7        1.0  0.6293689117592294  0.2808077104855329  0.2128317552851513  1.0000
  H   H8        1.0  0.6177789288340136  0.46758610662072897  0.8935852225404233  1.0000
  H   H9        1.0  0.5768189700320363  0.5231004418164957  0.27109505282714963  1.0000
  H   H10       1.0  0.25981437135487795  0.8787570572458208  0.13993504317477345  1.0000
  H   H11       1.0  0.1489537376910448  0.27351913414895535  0.8740043062716722  1.0000
  H   H12       1.0  0.3092645355500281  0.7057862691581249  0.5574283376336098  1.0000
  O   O1        1.0  0.7219314916001167  0.7896026385715231  0.9187510962947272  1.0000
  O   O2        1.0  0.43731086468324065  0.45161479734815657  0.6300726502668113  1.0000
  O   O3        1.0  0.3369066349696368  0.2713866866542958  0.9358400289202109  1.0000
  O   O4        1.0  0.2777763756457716  0.23359173443168402  0.7040623869979754  1.0000
  O   O5        1.0  0.2267254656762816  0.8472022160422057  0.5851108530914644  1.0000
  O   O6        1.0  0.701438081334345  0.30900867050513625  0.1202632483036723  1.0000
  O   O7        1.0  0.29518345394171774  0.9941700722556561  0.6355633146013133  1.0000
  O   O8        1.0  0.9890571809883113  0.6557112882146612  0.855644192895852  1.0000
  O   O9        1.0  0.23087954634684138  0.6767249473705306  0.027819249138701707  1.0000
  O   O10       1.0  0.6162471136049135  0.5976842717500404  0.6806955999927595  1.0000
data_image85
_chemical_formula_structural       Sr2Cu2H12O10
_chemical_formula_sum              "Sr2 Cu2 H12 O10"
_cell_length_a       6.296725
_cell_length_b       5.467378000000002
_cell_length_c       7.977295878227032
_cell_angle_alpha    72.20561901156641
_cell_angle_beta     90.0
_cell_angle_gamma    90.0

_space_group_name_H-M_alt    "P 1"
_space_group_IT_number       1

loop_
  _space_group_symop_operation_xyz
  'x, y, z'

loop_
  _atom_site_type_symbol
  _atom_site_label
  _atom_site_symmetry_multiplicity
  _atom_site_fract_x
  _atom_site_fract_y
  _atom_site_fract_z
  _atom_site_occupancy
  Sr  Sr1       1.0  0.8806293601519428  0.6021079766505864  0.33463479472266044  1.0000
  Sr  Sr2       1.0  0.6666037076502107  0.397472349810414  0.23266855944530107  1.0000
  Cu  Cu1       1.0  0.2745871781371534  0.3604999997187406  0.633927472634241  1.0000
  Cu  Cu2       1.0  0.6285462714731693  0.7221394940279424  0.20919462363235652  1.0000
  H   H1        1.0  0.5971600208431482  0.8509269477799535  0.9418115199077874  1.0000
  H   H2        1.0  0.031971066258847713  0.7015920717967674  0.5005913907662034  1.0000
  H   H3        1.0  0.9297103032004088  0.06291200779378414  0.3962003532797098  1.0000
  H   H4        1.0  0.1315412763506174  0.33100273087620735  0.6707661487162113  1.0000
  H   H5        1.0  0.4333284616586752  0.30598512187134475  0.9249221375212073  1.0000
  H   H6        1.0  0.5937274021562189  0.1374265713384375  0.896512215025723  1.0000
  H   H7        1.0  0.2174017978250049  0.5501038854708895  0.8140171741542872  1.0000
  H   H8        1.0  0.6148716353345662  0.13982775202021003  0.540490681771189  1.0000
  H   H9        1.0  0.2710492336191237  0.046391599767957814  0.02750942064449191  1.0000
  H   H10       1.0  0.23664662381634116  0.5928020440624095  0.23464209563098848  1.0000
  H   H11       1.0  0.936414837371558  0.2852116646245122  0.17591524915769696  1.0000
  H   H12       1.0  0.5865460061468184  0.5537527189590037  0.08892875723540783  1.0000
  O   O1        1.0  0.23332800445496105  0.3302845006401185  0.6986313952947967  1.0000
  O   O2        1.0  0.7411622041836381  0.7330418217461556  0.04547767771873623  1.0000
  O   O3        1.0  0.13884055707603693  0.043794550525490195  0.021215734523138963  1.0000
  O   O4        1.0  0.6796351983211935  0.29512524511665106  0.5198307837126777  1.0000
  O   O5        1.0  0.3261714367836248  0.4251917152432725  0.20351744900108315  1.0000
  O   O6        1.0  0.23706483654677868  0.4437205456197262  0.08799744470161386  1.0000
  O   O7        1.0  0.8021158344927244  0.10666845180094242  0.7350009669899009  1.0000
  O   O8        1.0  0.4270203388587106  0.8033590361010283  0.4866899132030085  1.0000
  O   O9        1.0  0.754300113330828  0.8028768500080332  0.7512876570399385  1.0000
  O   O10       1.0  0.9208997448004084  0.7108992251451127  0.21057849924545735  1.0000
data_image86
_chemical_formula_structural       Sr2Cu2H12O10
_chemical_formula_sum              "Sr2 Cu2 H12 O10"
_cell_length_a       6.296725
_cell_length_b       5.467378000000002
_cell_length_c       7.977295878227032
_cell_angle_alpha    72.20561901156641
_cell_angle_beta     90.0
_cell_angle_gamma    90.0

_space_group_name_H-M_alt    "P 1"
_space_group_IT_number       1

loop_
  _space_group_symop_operation_xyz
  'x, y, z'

loop_
  _atom_site_type_symbol
  _atom_site_label
  _atom_site_symmetry_multiplicity
  _atom_site_fract_x
  _atom_site_fract_y
  _atom_site_fract_z
  _atom_site_occupancy
  Sr  Sr1       1.0  0.6025788387050852  0.26487497420748696  0.8669192199740792  1.0000
  Sr  Sr2       1.0  0.8972081642423291  0.2119730197591707  0.9065896992979106  1.0000
  Cu  Cu1       1.0  0.40520612779073417  0.5204112052451819  0.4736762394895777  1.0000
  Cu  Cu2       1.0  0.7771780765615404  0.31029934412799776  0.8581013041548431  1.0000
  H   H1        1.0  0.9535434937570244  0.18122522137127817  0.23336360207758844  1.0000
  H   H2        1.0  0.5424410123378038  0.9370254352688789  0.28376624872907996  1.0000
  H   H3        1.0  0.22189805970992893  0.25680436566472054  0.14773763669654727  1.0000
  H   H4        1.0  0.9697061125189066  0.760377517901361  0.1010840842500329  1.0000
  H   H5        1.0  0.7628462325665168  0.014997100457549095  0.9987883109133691  1.0000
  H   H6        1.0  0.17820399708580226  0.04367536917561665  0.8160841660574079  1.0000
  H   H7        1.0  0.18074439541669562  0.16356955794617534  0.5676725839148276  1.0000
  H   H8        1.0  0.9361442873487249  0.19433320686221123  0.5272258610930294  1.0000
  H   H9        1.0  0.5698690437711775  0.3105601212591864  0.24674765765666962  1.0000
  H   H10       1.0  0.24953129142522812  0.8179380940855481  0.415598050924018  1.0000
  H   H11       1.0  0.4052428971044719  0.45564843621104956  0.36828491603955626  1.0000
  H   H12       1.0  0.10202244436368346  0.07982685416936874  0.7563692359253764  1.0000
  O   O1        1.0  0.8560466797207482  0.12228867868543603  0.5102314542164095  1.0000
  O   O2        1.0  0.43936413107439876  0.1337730053346604  0.7539231247501448  1.0000
  O   O3        1.0  0.36969105806201696  0.006520750583149493  0.9590881219337462  1.0000
  O   O4        1.0  0.08424847084097564  0.22755976987536997  0.8814692677697167  1.0000
  O   O5        1.0  0.6172722068440635  0.8620933318743482  0.7209929603614  1.0000
  O   O6        1.0  0.5187299087410793  0.8460420910269022  0.3141617012734059  1.0000
  O   O7        1.0  0.883862930117175  0.10311172786168754  0.196143958135508  1.0000
  O   O8        1.0  0.30347772933600936  0.9910577373811975  0.6134748959448189  1.0000
  O   O9        1.0  0.24693122110329568  0.8318321678380016  0.35507920061354525  1.0000
  O   O10       1.0  0.8716041660518385  0.12402780319098383  0.5007347476202995  1.0000
data_image87
_chemical_formula_structural       Sr2Cu2H12O10
_chemical_formula_sum              "Sr2 Cu2 H12 O10"
_cell_length_a       6.296725
_cell_length_b       5.467378000000002
_cell_length_c       7.977295878227032
_cell_angle_alpha    72.20561901156641
_cell_angle_beta     90.0
_cell_angle_gamma    90.0

_space_group_name_H-M_alt    "P 1"
_space_group_IT_number       1

loop_
  _space_group_symop_operation_xyz
  'x, y, z'

loop_
  _atom_site_type_symbol
  _atom_site_label
  _atom_site_symmetry_multiplicity
  _atom_site_fract_x
  _atom_site_fract_y
  _atom_site_fract_z
  _atom_site_occupancy
  Sr  Sr1       1.0  0.5567069678218104  0.4982330574130174  0.886341909514158  1.0000
  Sr  Sr2       1.0  0.33119341620476916  0.6696374139282852  0.6556866784230806  1.0000
  Cu  Cu1       1.0  0.7625958903227001  0.2617961708456278  0.5560519323917106  1.0000
  Cu  Cu2       1.0  0.5428444021381438  0.771114394068718  0.08943045628257096  1.0000
  H   H1        1.0  0.1001413487829268  0.34462034213356674  0.8195854292716831  1.0000
  H   H2        1.0  0.18885661731474102  0.42809789697639644  0.0998931317590177  1.0000
  H   H3        1.0  0.6906990554416552  0.5310561340302229  0.7042350727133453  1.0000
  H   H4        1.0  0.9534375937655568  0.8174585830420256  0.8701770526822656  1.0000
  H   H5        1.0  0.25098725338466465  0.10706935910275206  0.12504853657446802  1.0000
  H   H6        1.0  0.8646975590381771  0.005147261137608439  0.00668707862496376  1.0000
  H   H7        1.0  0.855533083959017  0.34176242514513433  0.4361423533700872  1.0000
  H   H8        1.0  0.9786031678086147  0.6746882065199316  0.5327614338602871  1.0000
  H   H9        1.0  0.4634338328614831  0.9120976288249949  0.04536092188209295  1.0000
  H   H10       1.0  0.2057316293939948  0.9688331591896713  0.8718690380919725  1.0000
  H   H11       1.0  0.648595426697284  0.8521486236713827  0.11575511749833822  1.0000
  H   H12       1.0  0.2792788753286004  0.5486626722849905  0.743340197019279  1.0000
  O   O1        1.0  0.024725602590478957  0.788737483555451  0.4830736317089759  1.0000
  O   O2        1.0  0.4942866349592805  0.33166541811078787  0.6385793144581839  1.0000
  O   O3        1.0  0.2547132414765656  0.38187125977128744  0.31097018989385106  1.0000
  O   O4        1.0  0.39029095717705786  0.35348465922288597  0.13282595039345324  1.0000
  O   O5        1.0  0.7575254814873915  0.6709393829805776  0.002340983603062341  1.0000
  O   O6        1.0  0.30997675051912665  0.2791586988605559  0.061206449288874865  1.0000
  O   O7        1.0  0.9936421265592799  0.98224639124237  0.2600604557956103  1.0000
  O   O8        1.0  0.8131184498197399  0.1318407345097512  0.9396775956265628  1.0000
  O   O9        1.0  0.6494748078403063  0.15637033239909215  0.35131399080273695  1.0000
  O   O10       1.0  0.04181919385155197  0.4334736500750296  0.8094812935451046  1.0000
data_image88
_chemical_formula_structural       Sr2Cu2H12O10
_chemical_formula_sum              "Sr2 Cu2 H12 O10"
_cell_length_a       6.296725
_cell_length_b       5.467378000000002
_cell_length_c       7.977295878227032
_cell_angle_alpha    72.20561901156641
_cell_angle_beta     90.0
_cell_angle_gamma    90.0

_space_group_name_H-M_alt    "P 1"
_space_group_IT_number       1

loop_
  _space_group_symop_operation_xyz
  'x, y, z'

loop_
  _atom_site_type_symbol
  _atom_site_label
  _atom_site_symmetry_multiplicity
  _atom_site_fract_x
  _atom_site_fract_y
  _atom_site_fract_z
  _atom_site_occupancy
  Sr  Sr1       1.0  0.8715781296486966  0.39338306974968873  0.7275698296107294  1.0000
  Sr  Sr2       1.0  0.3175712146476144  0.4292356242076494  0.03857740221428685  1.0000
  Cu  Cu1       1.0  0.7615146497264504  0.7184861910063773  0.15418313024565578  1.0000
  Cu  Cu2       1.0  0.02113846386782825  0.2491041929461062  0.37228351878002286  1.0000
  H   H1        1.0  0.2163442620076239  0.7235314281424507  0.09052076609805226  1.0000
  H   H2        1.0  0.4841770988423377  0.01789845898747444  0.24108777334913611  1.0000
  H   H3        1.0  0.6550209139240906  0.3388177864253521  0.5739017217420042  1.0000
  H   H4        1.0  0.8987092962488532  0.5809366754256189  0.45505196461454034  1.0000
  H   H5        1.0  0.8680388602078892  0.20680739963427186  0.6561702284961939  1.0000
  H   H6        1.0  0.4616431761533022  0.9857910550781526  0.031900033820420504  1.0000
  H   H7        1.0  0.359930477978196  0.8384823264786974  0.4034049659385346  1.0000
  H   H8        1.0  0.9745134226977825  0.19492300227284431  0.608711913228035  1.0000
  H   H9        1.0  0.2993487943895161  0.43016619692207314  0.34609663067385554  1.0000
  H   H10       1.0  0.23520290199667215  0.5995985865592957  0.7603455013595521  1.0000
  H   H11       1.0  0.3985453355126083  0.26579361385665834  0.5861848774366081  1.0000
  H   H12       1.0  0.015104915015399456  0.2881090738810599  0.6080661378800869  1.0000
  O   O1        1.0  0.900359102524817  0.6468319043924566  0.8841670683468692  1.0000
  O   O2        1.0  0.30147496657446027  0.28093190817162395  0.751819199998863  1.0000
  O   O3        1.0  0.9438106962479651  0.1884399853879586  0.05958194287086371  1.0000
  O   O4        1.0  0.6649905922822654  0.869655061258527  0.7661766031524166  1.0000
  O   O5        1.0  0.9349825889512431  0.24841246905270964  0.4854036218530382  1.0000
  O   O6        1.0  0.13791262218728662  0.8768008081242442  0.9020658268418629  1.0000
  O   O7        1.0  0.42041567247360945  0.5366283543407917  0.40627305893576704  1.0000
  O   O8        1.0  0.19717787813351606  0.8218522893730551  0.7402169869747013  1.0000
  O   O9        1.0  0.6064931483415421  0.07554887282458367  0.3845601521607023  1.0000
  O   O10       1.0  0.20970181110897101  0.5624666627845727  0.3645575324771926  1.0000
data_image89
_chemical_formula_structural       Sr2Cu2H12O10
_chemical_formula_sum              "Sr2 Cu2 H12 O10"
_cell_length_a       6.296725
_cell_length_b       5.467378000000002
_cell_length_c       7.977295878227032
_cell_angle_alpha    72.20561901156641
_cell_angle_beta     90.0
_cell_angle_gamma    90.0

_space_group_name_H-M_alt    "P 1"
_space_group_IT_number       1

loop_
  _space_group_symop_operation_xyz
  'x, y, z'

loop_
  _atom_site_type_symbol
  _atom_site_label
  _atom_site_symmetry_multiplicity
  _atom_site_fract_x
  _atom_site_fract_y
  _atom_site_fract_z
  _atom_site_occupancy
  Sr  Sr1       1.0  0.3707245687255636  0.5924774799204897  0.9139716276913532  1.0000
  Sr  Sr2       1.0  0.9265292269556085  0.9873346989625134  0.08226811062195338  1.0000
  Cu  Cu1       1.0  0.7995582879520953  0.16661880421452224  0.6278183391550556  1.0000
  Cu  Cu2       1.0  0.11919986084103584  0.031238628551363945  0.8282292385119945  1.0000
  H   H1        1.0  0.8490971720311791  0.7219719325657934  0.025227414444088936  1.0000
  H   H2        1.0  0.6184555526124313  0.2986085071461275  0.37089655082672834  1.0000
  H   H3        1.0  0.9104432289022952  0.8410627581179142  0.6313972463831306  1.0000
  H   H4        1.0  0.6448150593787432  0.7277359231375158  0.6615062325727195  1.0000
  H   H5        1.0  0.4563275841646828  0.6601938147796318  0.0012214139569550753  1.0000
  H   H6        1.0  0.8816178807755932  0.038378726167138666  0.10244417795911431  1.0000
  H   H7        1.0  0.22542678943136707  0.3935343463672325  0.980139371327823  1.0000
  H   H8        1.0  0.8304437031038105  0.09702969435602427  0.14079939830116928  1.0000
  H   H9        1.0  0.7610333985649049  0.7310555868898518  0.29031895380467176  1.0000
  H   H10       1.0  0.3292949413880706  0.5466462994227186  0.32371989358216524  1.0000
  H   H11       1.0  0.8931999234482646  0.7016823149751872  0.25180756859481335  1.0000
  H   H12       1.0  0.8901881668716669  0.748518883716315  0.08589316066354513  1.0000
  O   O1        1.0  0.7005998006206937  0.9648743503494188  0.9925119544495828  1.0000
  O   O2        1.0  0.8252533115446568  0.06113520171493292  0.04262878012377769  1.0000
  O   O3        1.0  0.177979827625677  0.4048492956790142  0.08344918910006527  1.0000
  O   O4        1.0  0.7787467659218237  0.30203311105287867  0.9459701755549759  1.0000
  O   O5        1.0  0.7711527358915191  0.8738352984655648  0.9462639218581899  1.0000
  O   O6        1.0  0.26949906325899065  0.1511247311718762  0.8176534111844376  1.0000
  O   O7        1.0  0.3171298406086862  0.28925195545889437  0.4760553272208199  1.0000
  O   O8        1.0  0.29449186190151977  0.830808914732188  0.19178177719004452  1.0000
  O   O9        1.0  0.4546306746196933  0.4513551650161389  0.583419115137076  1.0000
  O   O10       1.0  0.22962818991800305  0.008554933883715421  0.8528877171920612  1.0000
data_image90
_chemical_formula_structural       Sr2Cu2H12O10
_chemical_formula_sum              "Sr2 Cu2 H12 O10"
_cell_length_a       6.296725
_cell_length_b       5.467378000000002
_cell_length_c       7.977295878227032
_cell_angle_alpha    72.20561901156641
_cell_angle_beta     90.0
_cell_angle_gamma    90.0

_space_group_name_H-M_alt    "P 1"
_space_group_IT_number       1

loop_
  _space_group_symop_operation_xyz
  'x, y, z'

loop_
  _atom_site_type_symbol
  _atom_site_label
  _atom_site_symmetry_multiplicity
  _atom_site_fract_x
  _atom_site_fract_y
  _atom_site_fract_z
  _atom_site_occupancy
  Sr  Sr1       1.0  0.8407383110024966  0.6657288445858285  0.8552794443785388  1.0000
  Sr  Sr2       1.0  0.13048531871754676  0.3281635633902624  0.667532700492302  1.0000
  Cu  Cu1       1.0  0.6737596276216209  0.3812957098707557  0.7566449317382649  1.0000
  Cu  Cu2       1.0  0.635415795724839  0.46173263201490045  0.9214760006871074  1.0000
  H   H1        1.0  0.4861238794401288  0.622268795967102  0.5044833878055215  1.0000
  H   H2        1.0  0.7314024808583781  0.8595467510167509  0.2265160921961069  1.0000
  H   H3        1.0  0.9766481702681631  0.5926980189979076  0.7736578304320574  1.0000
  H   H4        1.0  0.20391738414764404  0.17310934513807297  0.6148410534951836  1.0000
  H   H5        1.0  0.36650182283483446  0.5888016219250858  0.4178749390412122  1.0000
  H   H6        1.0  0.9647710726130754  0.08000170567538589  0.04492545686662197  1.0000
  H   H7        1.0  0.8050121057895012  0.45919655344914645  0.18967370517202653  1.0000
  H   H8        1.0  0.5063244128832594  0.2039292622357607  0.9508961029350758  1.0000
  H   H9        1.0  0.04621595609933138  0.8430885095149279  0.18621694203466177  1.0000
  H   H10       1.0  0.8102889563888311  0.7041944339871407  0.6183515035081655  1.0000
  H   H11       1.0  0.4725841637700796  0.39647277328185737  0.557805931661278  1.0000
  H   H12       1.0  0.9963908079080284  0.39489191165193915  0.42453224025666714  1.0000
  O   O1        1.0  0.5878934522334021  0.7727429613587447  0.8793166929390281  1.0000
  O   O2        1.0  0.19597928039729595  0.15612030494958162  0.7110920319100842  1.0000
  O   O3        1.0  0.729850186733529  0.19734255666844547  0.028250190647668205  1.0000
  O   O4        1.0  0.7043854348594323  0.772506089793751  0.41279447288252413  1.0000
  O   O5        1.0  0.8742833060969133  0.2557168591301888  0.11091639748337911  1.0000
  O   O6        1.0  0.6134651462780312  0.06105353054590523  0.3636762144451495  1.0000
  O   O7        1.0  0.3929413768928498  0.07105533336289227  0.8081253339187242  1.0000
  O   O8        1.0  0.3609254773009525  0.001163097913376987  0.8827584418468177  1.0000
  O   O9        1.0  0.700844466657145  0.674183564609848  0.2814215097168926  1.0000
  O   O10       1.0  0.07224625942762941  0.49742534046527  0.6478822431527078  1.0000
data_image91
_chemical_formula_structural       Sr2Cu2H12O10
_chemical_formula_sum              "Sr2 Cu2 H12 O10"
_cell_length_a       6.296725
_cell_length_b       5.467378000000002
_cell_length_c       7.977295878227032
_cell_angle_alpha    72.20561901156641
_cell_angle_beta     90.0
_cell_angle_gamma    90.0

_space_group_name_H-M_alt    "P 1"
_space_group_IT_number       1

loop_
  _space_group_symop_operation_xyz
  'x, y, z'

loop_
  _atom_site_type_symbol
  _atom_site_label
  _atom_site_symmetry_multiplicity
  _atom_site_fract_x
  _atom_site_fract_y
  _atom_site_fract_z
  _atom_site_occupancy
  Sr  Sr1       1.0  0.5338354129344225  0.23569660117209423  0.36797301773913205  1.0000
  Sr  Sr2       1.0  0.7025011195655679  0.9473336822120473  0.7520417614723556  1.0000
  Cu  Cu1       1.0  0.562428570818156  0.6163578641135246  0.2720889071933925  1.0000
  Cu  Cu2       1.0  0.6046574232168496  0.7019645490217954  0.9648226236458868  1.0000
  H   H1        1.0  0.8985729557462037  0.35981627367436886  0.8863669668789953  1.0000
  H   H2        1.0  0.2553589704912156  0.6827807729132473  0.3804207877255976  1.0000
  H   H3        1.0  0.614603879279457  0.3760825265198946  0.8397069578059018  1.0000
  H   H4        1.0  0.4166529858484864  0.39885322423651814  0.9271733916830271  1.0000
  H   H5        1.0  0.4216282838024199  0.5239269146695733  0.2790042238775641  1.0000
  H   H6        1.0  0.08789055934175849  0.34953495644731447  0.2999982521869242  1.0000
  H   H7        1.0  0.22517405694816262  0.6441353865666315  0.3802827358886134  1.0000
  H   H8        1.0  0.9455316037638113  0.5398127655498683  0.5135880694724619  1.0000
  H   H9        1.0  0.8571669263765216  0.4183894253219478  0.33587531885132194  1.0000
  H   H10       1.0  0.2990172579884529  0.5841964738210663  0.3099127160385251  1.0000
  H   H11       1.0  0.6591495876200497  0.8875626663211733  0.01237753452733159  1.0000
  H   H12       1.0  0.393455411773175  0.7348909042775631  0.28394006937742233  1.0000
  O   O1        1.0  0.055657409378909506  0.3835909072076902  0.44842079340014607  1.0000
  O   O2        1.0  0.907977195456624  0.8740307777188718  0.8456719911191612  1.0000
  O   O3        1.0  0.19732681498862803  0.69639592646854  0.5171360061794985  1.0000
  O   O4        1.0  0.19680268096271902  0.7392560166263138  0.6360766759607941  1.0000
  O   O5        1.0  0.4037550193024799  0.21787933458108455  0.9116186332976213  1.0000
  O   O6        1.0  0.24404512450564653  0.6198879210278392  0.37849163450300694  1.0000
  O   O7        1.0  0.9751523268641904  0.18167972308583558  0.5077502767962869  1.0000
  O   O8        1.0  0.8014169655307342  0.6054034229600802  0.2963101019850001  1.0000
  O   O9        1.0  0.1429524478444364  0.9662544065540715  0.7256874650192913  1.0000
  O   O10       1.0  0.25947204291878734  0.5337804090231657  0.92195721459575  1.0000
data_image92
_chemical_formula_structural       Sr2Cu2H12O10
_chemical_formula_sum              "Sr2 Cu2 H12 O10"
_cell_length_a       6.296725
_cell_length_b       5.467378000000002
_cell_length_c       7.977295878227032
_cell_angle_alpha    72.20561901156641
_cell_angle_beta     90.0
_cell_angle_gamma    90.0

_space_group_name_H-M_alt    "P 1"
_space_group_IT_number       1

loop_
  _space_group_symop_operation_xyz
  'x, y, z'

loop_
  _atom_site_type_symbol
  _atom_site_label
  _atom_site_symmetry_multiplicity
  _atom_site_fract_x
  _atom_site_fract_y
  _atom_site_fract_z
  _atom_site_occupancy
  Sr  Sr1       1.0  0.7648171127075329  0.8658131295596831  0.669157853059005  1.0000
  Sr  Sr2       1.0  0.4983169967599679  0.2713004957186058  0.170004752028035  1.0000
  Cu  Cu1       1.0  0.6085380087606609  0.6770904154982418  0.9876543370191939  1.0000
  Cu  Cu2       1.0  0.6012839549221098  0.3613019164185971  0.8134000313002616  1.0000
  H   H1        1.0  0.04936250578612089  0.42578423791565  0.025570444529876113  1.0000
  H   H2        1.0  0.9547821320593357  0.035423488821834326  0.2559221610426903  1.0000
  H   H3        1.0  0.0014616906410083175  0.8626399990171194  0.3783863070420921  1.0000
  H   H4        1.0  0.47332512494176626  0.017552262637764215  0.6098443702794611  1.0000
  H   H5        1.0  0.03224467457039282  0.9142373212962411  0.15280678367707878  1.0000
  H   H6        1.0  0.6484643407166004  0.3957682160544209  0.8533954522572458  1.0000
  H   H7        1.0  0.9845142655540258  0.2249830337241292  0.9005668800673448  1.0000
  H   H8        1.0  0.2910058982670307  0.8381117405369878  0.15449188416823745  1.0000
  H   H9        1.0  0.9992838907055557  0.325965592142893  0.7073712693527341  1.0000
  H   H10       1.0  0.6681868089362979  0.7092683956725523  0.7559534450992942  1.0000
  H   H11       1.0  0.47729656705632806  0.03922683570999652  0.02459428831934929  1.0000
  H   H12       1.0  0.6923880791291595  0.5978925009258091  0.7447702484205365  1.0000
  O   O1        1.0  0.20108295290265232  0.20429080215399154  0.6499117528437637  1.0000
  O   O2        1.0  0.7100851149298251  0.24706935230642557  0.9723806865513325  1.0000
  O   O3        1.0  0.7359734596684575  0.5836517993593588  0.24022705997049343  1.0000
  O   O4        1.0  0.6688435142859817  0.3988419583256473  0.3602968920022249  1.0000
  O   O5        1.0  0.35519167105667293  0.3347684049513191  0.5733200234681135  1.0000
  O   O6        1.0  0.47021006944123656  0.8552988467272371  0.44319456015364267  1.0000
  O   O7        1.0  0.05867169296834618  0.0627137441188097  0.35903335094917566  1.0000
  O   O8        1.0  0.5294001898128045  0.30184363562148064  0.060848559136502445  1.0000
  O   O9        1.0  0.8231159442511853  0.47573816271324176  0.6444864665681962  1.0000
  O   O10       1.0  0.48373795780935325  0.9722453887807205  0.8908956565428525  1.0000
data_image93
_chemical_formula_structural       Sr2Cu2H12O10
_chemical_formula_sum              "Sr2 Cu2 H12 O10"
_cell_length_a       6.296725
_cell_length_b       5.467378000000002
_cell_length_c       7.977295878227032
_cell_angle_alpha    72.20561901156641
_cell_angle_beta     90.0
_cell_angle_gamma    90.0

_space_group_name_H-M_alt    "P 1"
_space_group_IT_number       1

loop_
  _space_group_symop_operation_xyz
  'x, y, z'

loop_
  _atom_site_type_symbol
  _atom_site_label
  _atom_site_symmetry_multiplicity
  _atom_site_fract_x
  _atom_site_fract_y
  _atom_site_fract_z
  _atom_site_occupancy
  Sr  Sr1       1.0  0.15232076798565686  0.8342708291165764  0.6337133391061798  1.0000
  Sr  Sr2       1.0  0.39691499824402854  0.3874678720603697  0.5822224472067319  1.0000
  Cu  Cu1       1.0  0.6144154638750479  0.07329966663382947  0.7887161562102847  1.0000
  Cu  Cu2       1.0  0.552603893680498  0.7944140171166509  0.08809790690429509  1.0000
  H   H1        1.0  0.8147917971946299  0.1919528879225254  0.14993651281110942  1.0000
  H   H2        1.0  0.38403881108388305  0.26935086864978075  0.8123943069949746  1.0000
  H   H3        1.0  0.2201143663842231  0.07565584033727646  0.8091079541482031  1.0000
  H   H4        1.0  0.02546543348580599  0.9276025574654341  0.7709867996163666  1.0000
  H   H5        1.0  0.4712850595242344  0.03369949961779639  0.4890980483032763  1.0000
  H   H6        1.0  0.49195899919141084  0.15572261571651325  0.24538467172533274  1.0000
  H   H7        1.0  0.4953621888998896  0.9344675514148548  0.37082698664744385  1.0000
  H   H8        1.0  0.8800434034783393  0.8300536507740617  0.5736473661381751  1.0000
  H   H9        1.0  0.8139326630625874  0.8662575322377961  0.7264049602672458  1.0000
  H   H10       1.0  0.8226452120579779  0.7454904920014087  0.5353664469439536  1.0000
  H   H11       1.0  0.8770649954676628  0.48041036003269255  0.607177069876343  1.0000
  H   H12       1.0  0.9753093491308391  0.21313954889774323  0.06172856129705906  1.0000
  O   O1        1.0  0.514715225843247  0.8710065269842744  0.33453883684705943  1.0000
  O   O2        1.0  0.5699346261098981  0.3434274732135236  0.392214224091731  1.0000
  O   O3        1.0  0.3616216799709946  0.7810261036502197  0.8326768227707362  1.0000
  O   O4        1.0  0.7322480473667383  0.3233756324771093  0.13050365285016596  1.0000
  O   O5        1.0  0.43720047918031923  0.32702586287632585  0.34306202059451607  1.0000
  O   O6        1.0  0.639749841298908  0.2678785671014339  0.3561715846299194  1.0000
  O   O7        1.0  0.8619274975499138  0.15945265861228108  0.52301354429801  1.0000
  O   O8        1.0  0.23944111738092033  0.4699479719856754  0.7973456324543804  1.0000
  O   O9        1.0  0.7443266152695287  0.11061478960255045  0.7114959736354649  1.0000
  O   O10       1.0  0.038011679498595186  0.8701177101465873  0.8877751602558419  1.0000
data_image94
_chemical_formula_structural       Sr2Cu2H12O10
_chemical_formula_sum              "Sr2 Cu2 H12 O10"
_cell_length_a       6.296725
_cell_length_b       5.467378000000002
_cell_length_c       7.977295878227032
_cell_angle_alpha    72.20561901156641
_cell_angle_beta     90.0
_cell_angle_gamma    90.0

_space_group_name_H-M_alt    "P 1"
_space_group_IT_number       1

loop_
  _space_group_symop_operation_xyz
  'x, y, z'

loop_
  _atom_site_type_symbol
  _atom_site_label
  _atom_site_symmetry_multiplicity
  _atom_site_fract_x
  _atom_site_fract_y
  _atom_site_fract_z
  _atom_site_occupancy
  Sr  Sr1       1.0  0.4484165229368955  0.16278895264622406  0.8930140112061054  1.0000
  Sr  Sr2       1.0  0.9870197625714354  0.8741689344751649  0.5273411183443386  1.0000
  Cu  Cu1       1.0  0.10575075983069837  0.18898112862370908  0.24982675799401477  1.0000
  Cu  Cu2       1.0  0.026527313282713294  0.3892559250816703  0.9211875000037253  1.0000
  H   H1        1.0  0.3793339775875211  0.4668505588779226  0.1297949687577784  1.0000
  H   H2        1.0  0.5911923220846802  0.0072353912983089685  0.1855833102017641  1.0000
  H   H3        1.0  0.7834654676844366  0.5252597611397505  0.0798617908731103  1.0000
  H   H4        1.0  0.6735594589263201  0.8583209789358079  0.6091866623610258  1.0000
  H   H5        1.0  0.9886000956757925  0.0747077752603218  0.9988854170078412  1.0000
  H   H6        1.0  0.26901164813898504  0.9374190079397522  0.5795698640868068  1.0000
  H   H7        1.0  0.9290047496033367  0.16631146240979433  0.6692125839181244  1.0000
  H   H8        1.0  0.20043995406012982  0.1311877565458417  0.2891676889266819  1.0000
  H   H9        1.0  0.0374504653736949  0.3957169747154694  0.8291200194507837  1.0000
  H   H10       1.0  0.9435940068215132  0.9319256536255125  0.87826555268839  1.0000
  H   H11       1.0  0.7305826977826655  0.17235030978918076  0.8073219400830567  1.0000
  H   H12       1.0  0.028901581186801195  0.9238231922499835  0.5913229491561651  1.0000
  O   O1        1.0  0.8855965869734064  0.7560448806325439  0.1561458056094125  1.0000
  O   O2        1.0  0.11057557165622711  0.8707868121564388  0.01873136474750936  1.0000
  O   O3        1.0  0.6959423066582531  0.5723167941905558  0.477417185131344  1.0000
  O   O4        1.0  0.1262989538954571  0.9393983566042152  0.172967349877581  1.0000
  O   O5        1.0  0.3302217008022126  0.7796674366109073  0.7107576118069119  1.0000
  O   O6        1.0  0.2941967431688681  0.42283572535961866  0.9822795670770574  1.0000
  O   O7        1.0  0.41297594172647223  0.12585733085870743  0.396661865117494  1.0000
  O   O8        1.0  0.22151675280474592  0.5149014750495553  0.0648358651669696  1.0000
  O   O9        1.0  0.5234120569366496  0.44405249437477323  0.8663812822196633  1.0000
  O   O10       1.0  0.9749971513228957  0.7679281472228467  0.15387795004062355  1.0000
data_image95
_chemical_formula_structural       Sr2Cu2H12O10
_chemical_formula_sum              "Sr2 Cu2 H12 O10"
_cell_length_a       6.296725
_cell_length_b       5.467378000000002
_cell_length_c       7.977295878227032
_cell_angle_alpha    72.20561901156641
_cell_angle_beta     90.0
_cell_angle_gamma    90.0

_space_group_name_H-M_alt    "P 1"
_space_group_IT_number       1

loop_
  _space_group_symop_operation_xyz
  'x, y, z'

loop_
  _atom_site_type_symbol
  _atom_site_label
  _atom_site_symmetry_multiplicity
  _atom_site_fract_x
  _atom_site_fract_y
  _atom_site_fract_z
  _atom_site_occupancy
  Sr  Sr1       1.0  0.9771772933891043  0.5853395574304159  0.9960911729140207  1.0000
  Sr  Sr2       1.0  0.6018036413006485  0.04152669390896335  0.7857107141171582  1.0000
  Cu  Cu1       1.0  0.6682325780857354  0.3794204634614289  0.034048772358801216  1.0000
  Cu  Cu2       1.0  0.9208672954700887  0.690573955187574  0.7353589565027505  1.0000
  H   H1        1.0  0.3266180222854018  0.19936475669965148  0.6421250347048044  1.0000
  H   H2        1.0  0.2054193455260247  0.6278216221835464  0.8502925531938672  1.0000
  H   H3        1.0  0.2046971170930192  0.8568974267691374  0.5137915210798383  1.0000
  H   H4        1.0  0.609417931176722  0.6013243538327515  0.3179357887711376  1.0000
  H   H5        1.0  0.7121773744001985  0.6682516121654771  0.7662558883894235  1.0000
  H   H6        1.0  0.21688709233421832  0.5282357241376303  0.9764542249031365  1.0000
  H   H7        1.0  0.8084859316586517  0.9842872708104551  0.8518884289223934  1.0000
  H   H8        1.0  0.24625007738359272  0.7029835232533514  0.08218611776828766  1.0000
  H   H9        1.0  0.6568768720608205  0.8638509675220121  0.9409411498345435  1.0000
  H   H10       1.0  0.2814896455965936  0.8057297266932437  0.9319919236004353  1.0000
  H   H11       1.0  0.4894732623361051  0.1422631680034101  0.16886231722310185  1.0000
  H   H12       1.0  0.40661084931343794  0.581206233240664  0.1066860081627965  1.0000
  O   O1        1.0  0.711058020213386  0.35297001284197904  0.12183927395381033  1.0000
  O   O2        1.0  0.2110100332647562  0.14198302058503032  0.14613849727902561  1.0000
  O   O3        1.0  0.7786629979964346  0.8293713289313018  0.24983340631297324  1.0000
  O   O4        1.0  0.8196885393699631  0.41312827892397763  0.917137251002714  1.0000
  O   O5        1.0  0.8158344401745126  0.5679653903935105  0.1953168666041165  1.0000
  O   O6        1.0  0.039061924209818244  0.07222471456043422  0.17004247105796821  1.0000
  O   O7        1.0  0.7869325731298886  0.0060785838868469  0.46587292829644866  1.0000
  O   O8        1.0  0.48618835509114433  0.8882227971917018  0.40508993447292596  1.0000
  O   O9        1.0  0.07473390031373128  0.8957872953433252  0.03237215126864612  1.0000
  O   O10       1.0  0.8152825411380036  0.6012574785272591  0.04212461947463453  1.0000
data_image96
_chemical_formula_structural       Sr2Cu2H12O10
_chemical_formula_sum              "Sr2 Cu2 H12 O10"
_cell_length_a       6.296725
_cell_length_b       5.467378000000002
_cell_length_c       7.977295878227032
_cell_angle_alpha    72.20561901156641
_cell_angle_beta     90.0
_cell_angle_gamma    90.0

_space_group_name_H-M_alt    "P 1"
_space_group_IT_number       1

loop_
  _space_group_symop_operation_xyz
  'x, y, z'

loop_
  _atom_site_type_symbol
  _atom_site_label
  _atom_site_symmetry_multiplicity
  _atom_site_fract_x
  _atom_site_fract_y
  _atom_site_fract_z
  _atom_site_occupancy
  Sr  Sr1       1.0  0.03039184573572129  0.18172477648113272  0.4457652788842097  1.0000
  Sr  Sr2       1.0  0.39974721378530376  0.12269280734471977  0.4190178304561414  1.0000
  Cu  Cu1       1.0  0.7315457942895591  0.9268242954276502  0.6924585615633987  1.0000
  Cu  Cu2       1.0  0.8139962409622967  0.20476957270875573  0.8771743692923337  1.0000
  H   H1        1.0  0.02168018347583711  0.40665880450978875  0.09362935228273273  1.0000
  H   H2        1.0  0.5395147074013948  0.7017964215483516  0.8421608731150627  1.0000
  H   H3        1.0  0.08359402191126719  0.41430179961025715  0.676792268641293  1.0000
  H   H4        1.0  0.5749093908816576  0.27195116179063916  0.1083219894208014  1.0000
  H   H5        1.0  0.822220234433189  0.5566638126038015  0.7365327805746347  1.0000
  H   H6        1.0  0.4084622103255242  0.02022838540142402  0.979453997220844  1.0000
  H   H7        1.0  0.6966412099136505  0.8668507538968697  0.010047185263829306  1.0000
  H   H8        1.0  0.784905776148662  0.4854043135419488  0.09250255301594734  1.0000
  H   H9        1.0  0.8088436855468899  0.3036779412359465  0.7359723011031747  1.0000
  H   H10       1.0  0.25639746943488717  0.3215890269348165  0.0038453289307653904  1.0000
  H   H11       1.0  0.033214807976037264  0.005632940446957946  0.4044275335036218  1.0000
  H   H12       1.0  0.9936892441473901  0.49500820646062493  0.8847729479894042  1.0000
  O   O1        1.0  0.6680676674295682  0.22377873028744943  0.22966459178132936  1.0000
  O   O2        1.0  0.9711839067749679  0.18604120332747698  0.0718831162666902  1.0000
  O   O3        1.0  0.5754844502080232  0.32273909833747894  0.6430707767576678  1.0000
  O   O4        1.0  0.7500186434481293  0.7223504231224069  0.5834321668371558  1.0000
  O   O5        1.0  0.9232382908230647  0.2730874071130529  0.5788826426651212  1.0000
  O   O6        1.0  0.5528888329863548  0.7220785866957158  0.16267507240991108  1.0000
  O   O7        1.0  0.8831801248597912  0.3976935918908566  0.9059267841221299  1.0000
  O   O8        1.0  0.31508776468399446  0.9121779223205522  0.7639475096948445  1.0000
  O   O9        1.0  0.023211090243421495  0.008678182253788691  0.8896382363745943  1.0000
  O   O10       1.0  0.9032553980650846  0.4848711038357578  0.46756176883354783  1.0000
data_image97
_chemical_formula_structural       Sr2Cu2H12O10
_chemical_formula_sum              "Sr2 Cu2 H12 O10"
_cell_length_a       6.296725
_cell_length_b       5.467378000000002
_cell_length_c       7.977295878227032
_cell_angle_alpha    72.20561901156641
_cell_angle_beta     90.0
_cell_angle_gamma    90.0

_space_group_name_H-M_alt    "P 1"
_space_group_IT_number       1

loop_
  _space_group_symop_operation_xyz
  'x, y, z'

loop_
  _atom_site_type_symbol
  _atom_site_label
  _atom_site_symmetry_multiplicity
  _atom_site_fract_x
  _atom_site_fract_y
  _atom_site_fract_z
  _atom_site_occupancy
  Sr  Sr1       1.0  0.7711381609551609  0.8612856109866698  0.9691019563470036  1.0000
  Sr  Sr2       1.0  0.8690500396187417  0.3648964417516254  0.7266908328747377  1.0000
  Cu  Cu1       1.0  0.15902083506807685  0.09080485766753554  0.8155707291443832  1.0000
  Cu  Cu2       1.0  0.5827133753336966  0.09318013535812497  0.614896189654246  1.0000
  H   H1        1.0  0.6689853465650231  0.4765089040156454  0.9226715790573508  1.0000
  H   H2        1.0  0.2657912173308432  0.9740491495467722  0.9239696497097611  1.0000
  H   H3        1.0  0.8381976582459174  0.7711881753057241  0.8160698367282748  1.0000
  H   H4        1.0  0.7126350160688162  0.34764576237648726  0.1639532637782395  1.0000
  H   H5        1.0  0.9492776795523241  0.5630954046500847  0.5151576651260257  1.0000
  H   H6        1.0  0.6179650290869176  0.23287634464213625  0.5961668770760298  1.0000
  H   H7        1.0  0.8074958780780435  0.8935087260615546  0.7000659900950268  1.0000
  H   H8        1.0  0.47390654124319553  0.5668389471247792  0.3227402789052576  1.0000
  H   H9        1.0  0.9946866235695779  0.5125652971037198  0.7923924084752798  1.0000
  H   H10       1.0  0.06619503675028682  0.9041853600356262  0.3865757768508047  1.0000
  H   H11       1.0  0.110676403157413  0.5807361612096429  0.6135354968719184  1.0000
  H   H12       1.0  0.6831526006571949  0.057308058720082045  0.2001561364158988  1.0000
  O   O1        1.0  0.8770439649233595  0.6375546390481759  0.7822999493801035  1.0000
  O   O2        1.0  0.10529125668108463  0.6429871441796422  0.6566632221220061  1.0000
  O   O3        1.0  0.20436842902563512  0.9040563519229181  0.7432471755018923  1.0000
  O   O4        1.0  0.9912839635508135  0.7816771646612324  0.5873214192688465  1.0000
  O   O5        1.0  0.8830420979647897  0.8889280037255958  0.8684241897717584  1.0000
  O   O6        1.0  0.8023445972939953  0.881023179506883  0.23149905394529924  1.0000
  O   O7        1.0  0.403432477847673  0.5645073230843991  0.10768092097714543  1.0000
  O   O8        1.0  0.6302463967440417  0.2831127227982506  0.21376920165494084  1.0000
  O   O9        1.0  0.7017105359700508  0.5483743991644587  0.6677437282924075  1.0000
  O   O10       1.0  0.1277304707764415  0.43873405549675226  0.9653097030241042  1.0000
data_image98
_chemical_formula_structural       Sr2Cu2H12O10
_chemical_formula_sum              "Sr2 Cu2 H12 O10"
_cell_length_a       6.296725
_cell_length_b       5.467378000000002
_cell_length_c       7.977295878227032
_cell_angle_alpha    72.20561901156641
_cell_angle_beta     90.0
_cell_angle_gamma    90.0

_space_group_name_H-M_alt    "P 1"
_space_group_IT_number       1

loop_
  _space_group_symop_operation_xyz
  'x, y, z'

loop_
  _atom_site_type_symbol
  _atom_site_label
  _atom_site_symmetry_multiplicity
  _atom_site_fract_x
  _atom_site_fract_y
  _atom_site_fract_z
  _atom_site_occupancy
  Sr  Sr1       1.0  0.400052260607481  0.23278470375953475  0.16277871700003743  1.0000
  Sr  Sr2       1.0  0.33586197829572484  0.2072645931621082  0.47995324750081636  1.0000
  Cu  Cu1       1.0  0.29426351515576243  0.2642893707379699  0.6373269091709517  1.0000
  Cu  Cu2       1.0  0.8540708608925343  0.7038308957125992  0.2418547871056944  1.0000
  H   H1        1.0  0.6653899170923978  0.9680367527762428  0.042115689255297184  1.0000
  H   H2        1.0  0.40704275597818196  0.6625970026943833  0.8568382295779884  1.0000
  H   H3        1.0  0.46255370130529627  0.16554819978773594  0.7036430691368878  1.0000
  H   H4        1.0  0.6533161411061883  0.7665573442354798  0.8353593470528722  1.0000
  H   H5        1.0  0.17848083953140303  0.5333230987889692  0.07835063338279724  1.0000
  H   H6        1.0  0.7456019551027566  0.1481651522917673  0.07244337908923626  1.0000
  H   H7        1.0  0.8953191605396569  0.4531236381153576  0.1321900711627677  1.0000
  H   H8        1.0  0.4951258059591055  0.05493389256298542  0.9398409486748278  1.0000
  H   H9        1.0  0.9699964008759707  0.5632679326809011  0.007133767940104008  1.0000
  H   H10       1.0  0.005688829347491264  0.6839273542282172  0.01281989668495953  1.0000
  H   H11       1.0  0.46506941970437765  0.6342857973650098  0.6745002316311002  1.0000
  H   H12       1.0  0.00910644605755806  0.9692517844960093  0.981495812535286  1.0000
  O   O1        1.0  0.13803305348847061  0.7458610442990903  0.1291048243874684  1.0000
  O   O2        1.0  0.06730031874030828  0.11693106777966022  0.3977701994590461  1.0000
  O   O3        1.0  0.9401754646096379  0.7230775004718453  0.6952705497096758  1.0000
  O   O4        1.0  0.38545594725292176  0.3888049075176241  0.7277225283905864  1.0000
  O   O5        1.0  0.6919392019917723  0.026260643848218024  0.9196474828968348  1.0000
  O   O6        1.0  0.30066000029910356  0.5515100294724107  0.04708481254056096  1.0000
  O   O7        1.0  0.47821006074082106  0.4735817403998226  0.24242237603175454  1.0000
  O   O8        1.0  0.2764944275986636  0.9571104809874669  0.6462848358787596  1.0000
  O   O9        1.0  0.782012119947467  0.21190107821166748  0.6087192360428162  1.0000
  O   O10       1.0  0.7040939492289908  0.6323600760661066  0.12126787554007024  1.0000
data_image99
_chemical_formula_structural       Sr2Cu2H12O10
_chemical_formula_sum              "Sr2 Cu2 H12 O10"
_cell_length_a       6.296725
_cell_length_b       5.467378000000002
_cell_length_c       7.977295878227032
_cell_angle_alpha    72.20561901156641
_cell_angle_beta     90.0
_cell_angle_gamma    90.0

_space_group_name_H-M_alt    "P 1"
_space_group_IT_number       1

loop_
  _space_group_symop_operation_xyz
  'x, y, z'

loop_
  _atom_site_type_symbol
  _atom_site_label
  _atom_site_symmetry_multiplicity
  _atom_site_fract_x
  _atom_site_fract_y
  _atom_site_fract_z
  _atom_site_occupancy
  Sr  Sr1       1.0  0.9263536153594032  0.6305462837262894  0.27836147852940485  1.0000
  Sr  Sr2       1.0  0.03006860049208626  0.6024222310516052  0.25017609167844057  1.0000
  Cu  Cu1       1.0  0.5505028143525124  0.3163362289778888  0.7185637902584858  1.0000
  Cu  Cu2       1.0  0.10416475683450699  0.6229426763020456  0.8954416245687753  1.0000
  H   H1        1.0  0.997535883449018  0.7648571478202939  0.15088453143835068  1.0000
  H   H2        1.0  0.15157542517408729  0.04190818010829389  0.2208429337479174  1.0000
  H   H3        1.0  0.036411654960829765  0.4239201042801142  0.29971964564174414  1.0000
  H   H4        1.0  0.21990196965634823  0.12940843496471643  0.5075305162463337  1.0000
  H   H5        1.0  0.5932485371013172  0.24460017489036545  0.7230698483763263  1.0000
  H   H6        1.0  0.5615027663297951  0.31695322814630345  0.5537568619474769  1.0000
  H   H7        1.0  0.31306551169836894  0.09348696802044287  0.9499688629293814  1.0000
  H   H8        1.0  0.0394046981818974  0.9142806311137974  0.16974309971556067  1.0000
  H   H9        1.0  0.9187021129764616  0.9211401034262963  0.15774235175922513  1.0000
  H   H10       1.0  0.21211947267875075  0.047084576908673625  0.057083295192569494  1.0000
  H   H11       1.0  0.9839615728706121  0.07782239955849946  0.23892642883583903  1.0000
  H   H12       1.0  0.19552424224093556  0.22813819348812103  0.9000105410814285  1.0000
  O   O1        1.0  0.7843765215075109  0.1697524240880739  0.9734493464929983  1.0000
  O   O2        1.0  0.03628641273826361  0.7649205368943512  0.7157913945848122  1.0000
  O   O3        1.0  0.3121843244880438  0.5765609078807756  0.9057796208653599  1.0000
  O   O4        1.0  0.8405298400903121  0.9686424075334799  0.2652639886364341  1.0000
  O   O5        1.0  0.3141045745869633  0.2786472791340202  0.25797491414050455  1.0000
  O   O6        1.0  0.6729497181950137  0.889400715008378  0.6689223141875118  1.0000
  O   O7        1.0  0.3926649239147082  0.18458915199153125  0.4554104410635773  1.0000
  O   O8        1.0  0.2488991938298568  0.7189080039970577  0.28196713444776833  1.0000
  O   O9        1.0  0.06401973642641678  0.2653355075235595  0.2924467900302261  1.0000
  O   O10       1.0  0.15189134134561755  0.580104410648346  0.5447067830245942  1.0000
data_image100
_chemical_formula_structural       Sr2Cu2H12O10
_chemical_formula_sum              "Sr2 Cu2 H12 O10"
_cell_length_a       6.296725
_cell_length_b       5.467378000000002
_cell_length_c       7.977295878227032
_cell_angle_alpha    72.20561901156641
_cell_angle_beta     90.0
_cell_angle_gamma    90.0

_space_group_name_H-M_alt    "P 1"
_space_group_IT_number       1

loop_
  _space_group_symop_operation_xyz
  'x, y, z'

loop_
  _atom_site_type_symbol
  _atom_site_label
  _atom_site_symmetry_multiplicity
  _atom_site_fract_x
  _atom_site_fract_y
  _atom_site_fract_z
  _atom_site_occupancy
  Sr  Sr1       1.0  0.4658183839637786  0.6498875568577205  0.057345720764715225  1.0000
  Sr  Sr2       1.0  0.6316820001520682  0.7113962717121467  0.5345512077910826  1.0000
  Cu  Cu1       1.0  0.9573879496892914  0.42183744441717863  0.26491823385003954  1.0000
  Cu  Cu2       1.0  0.9007252904120833  0.3116585083771497  0.4384503997862339  1.0000
  H   H1        1.0  0.6487267124466598  0.14429044432472438  0.04631259641610086  1.0000
  H   H2        1.0  0.5423889418598264  0.7692338398192078  0.14967413200065494  1.0000
  H   H3        1.0  0.9360403501195833  0.528852416202426  0.6455887020565569  1.0000
  H   H4        1.0  0.14834285620599985  0.991064035333693  0.5257833087816834  1.0000
  H   H5        1.0  0.15987527940887958  0.5118104543653317  0.7453374891774729  1.0000
  H   H6        1.0  0.24800858250819147  0.8172888949047774  0.2662456897087395  1.0000
  H   H7        1.0  0.26139047055039555  0.46573795430595055  0.5190514926798642  1.0000
  H   H8        1.0  0.5993185124825686  0.3636931465007365  0.3147732357028872  1.0000
  H   H9        1.0  0.11831893515773118  0.14212642615893856  0.7700878893956542  1.0000
  H   H10       1.0  0.04284856468439102  0.25799107493367046  0.002127809450030327  1.0000
  H   H11       1.0  0.20500566437840462  0.7452313948888332  0.8741752402856946  1.0000
  H   H12       1.0  0.5423413841053843  0.7818921897560358  0.33494310546666384  1.0000
  O   O1        1.0  0.7620396711863577  0.3149341940297745  0.15895619004731998  1.0000
  O   O2        1.0  0.1920992797240615  0.5776712535880506  0.053024216555058956  1.0000
  O   O3        1.0  0.3854280230589211  0.9677390382275917  0.8104889961832669  1.0000
  O   O4        1.0  0.5715945423580706  0.843773414962925  0.5684879792388529  1.0000
  O   O5        1.0  0.7302126548893284  0.12611812877003103  0.003779412330914056  1.0000
  O   O6        1.0  0.08754527533892542  0.6595903132110834  0.6780647563864477  1.0000
  O   O7        1.0  0.8031423803768121  0.4492451271507889  0.11510535795241594  1.0000
  O   O8        1.0  0.41493320965673774  0.5061991063412279  0.4267385574057698  1.0000
  O   O9        1.0  0.6173560327733867  0.5958248126335093  0.4392137186951004  1.0000
  O   O10       1.0  0.784052888979204  0.9592520510777831  0.1731264458503574  1.0000
data_image101
_chemical_formula_structural       Sr2Cu2H12O10
_chemical_formula_sum              "Sr2 Cu2 H12 O10"
_cell_length_a       6.296725
_cell_length_b       5.467378000000002
_cell_length_c       7.977295878227032
_cell_angle_alpha    72.20561901156641
_cell_angle_beta     90.0
_cell_angle_gamma    90.0

_space_group_name_H-M_alt    "P 1"
_space_group_IT_number       1

loop_
  _space_group_symop_operation_xyz
  'x, y, z'

loop_
  _atom_site_type_symbol
  _atom_site_label
  _atom_site_symmetry_multiplicity
  _atom_site_fract_x
  _atom_site_fract_y
  _atom_site_fract_z
  _atom_site_occupancy
  Sr  Sr1       1.0  0.34026271558832377  0.5182040273939492  0.854314423573669  1.0000
  Sr  Sr2       1.0  0.7302886606776156  0.8237501665716991  0.46374706889037043  1.0000
  Cu  Cu1       1.0  0.7967010542051867  0.08173990016803145  0.862791282183025  1.0000
  Cu  Cu2       1.0  0.9855624907650054  0.3861659080721438  0.6474128463305533  1.0000
  H   H1        1.0  0.632450285134837  0.22746131115127355  0.8640426672063768  1.0000
  H   H2        1.0  0.3633508952334523  0.030919300625100732  0.6484434027224779  1.0000
  H   H3        1.0  0.7711063933093101  0.34164633974432945  0.008405465632677078  1.0000
  H   H4        1.0  0.4666145220398903  0.27205489482730627  0.7246347561012954  1.0000
  H   H5        1.0  0.820557048136834  0.08198472659569234  0.5648254520492628  1.0000
  H   H6        1.0  0.4716229100013152  0.6049979134113528  0.8074172306805849  1.0000
  H   H7        1.0  0.7799112768261693  0.587340097525157  0.985259786946699  1.0000
  H   H8        1.0  0.6873157580848783  0.45396582409739494  0.8371416311711073  1.0000
  H   H9        1.0  0.9992403793148696  0.898180029267678  0.46360599575564265  1.0000
  H   H10       1.0  0.3765334482304752  0.16801934223622084  0.4625263006892055  1.0000
  H   H11       1.0  0.8889902858063579  0.9403088681865484  0.3187572821043432  1.0000
  H   H12       1.0  0.7687114714644849  0.17899280739948153  0.4681676523759961  1.0000
  O   O1        1.0  0.8138426257937681  0.07920059960451908  0.7385014183819294  1.0000
  O   O2        1.0  0.3766672988422215  0.5279197627678514  0.6614640861516818  1.0000
  O   O3        1.0  0.16266358946450055  0.9618684012675658  0.591428059124155  1.0000
  O   O4        1.0  0.8884293888695538  0.37772586644859985  0.9312084480188787  1.0000
  O   O5        1.0  0.696422765700845  0.3920570934424177  0.2486828714099829  1.0000
  O   O6        1.0  0.09756899147760123  0.14861538261175156  0.2067372453166172  1.0000
  O   O7        1.0  0.5206091995933093  0.41930535645224154  0.9100256718520541  1.0000
  O   O8        1.0  0.46000770218961406  0.9332286714343354  0.8810662984615192  1.0000
  O   O9        1.0  0.2571430100360885  0.5540115911790053  0.47992853735922836  1.0000
  O   O10       1.0  0.3842378996341722  0.43179515830706805  0.9532092125155032  1.0000
data_image102
_chemical_formula_structural       Sr2Cu2H12O10
_chemical_formula_sum              "Sr2 Cu2 H12 O10"
_cell_length_a       6.296725
_cell_length_b       5.467378000000002
_cell_length_c       7.977295878227032
_cell_angle_alpha    72.20561901156641
_cell_angle_beta     90.0
_cell_angle_gamma    90.0

_space_group_name_H-M_alt    "P 1"
_space_group_IT_number       1

loop_
  _space_group_symop_operation_xyz
  'x, y, z'

loop_
  _atom_site_type_symbol
  _atom_site_label
  _atom_site_symmetry_multiplicity
  _atom_site_fract_x
  _atom_site_fract_y
  _atom_site_fract_z
  _atom_site_occupancy
  Sr  Sr1       1.0  0.29964403121266514  0.7959746733031352  0.09055533999344334  1.0000
  Sr  Sr2       1.0  0.07882627673097886  0.658998288679868  0.5354494712082669  1.0000
  Cu  Cu1       1.0  0.2839436517097056  0.648248573532328  0.3854044791078195  1.0000
  Cu  Cu2       1.0  0.2972778163384646  0.39518705452792346  0.5875783236697316  1.0000
  H   H1        1.0  0.7241686338093132  0.13249299733433872  0.36857349053025246  1.0000
  H   H2        1.0  0.9670316656120121  0.8307928296271712  0.04858355037868023  1.0000
  H   H3        1.0  0.8117685037432238  0.6287490092217922  0.24748014751821756  1.0000
  H   H4        1.0  0.8076338665559888  0.5317318374291062  0.6280061998404562  1.0000
  H   H5        1.0  0.7313442589947954  0.38687170745106414  0.4929139035521075  1.0000
  H   H6        1.0  0.2608130333246663  0.4608099177130498  0.03775169141590595  1.0000
  H   H7        1.0  0.9531570182880387  0.26970253727631643  0.4956297848839313  1.0000
  H   H8        1.0  0.36159362737089396  0.8786101094447076  0.23669196316041052  1.0000
  H   H9        1.0  0.11731188604608178  0.43407128874969203  0.613909010309726  1.0000
  H   H10       1.0  0.21823227289132774  0.2304521279875189  0.3859777213074267  1.0000
  H   H11       1.0  0.6098870439454913  0.6125254021026194  0.5087836738675833  1.0000
  H   H12       1.0  0.44658359978348017  0.35815985361114144  0.6440505711361766  1.0000
  O   O1        1.0  0.6706475904793479  0.8071110687742475  0.4751757573103532  1.0000
  O   O2        1.0  0.36142151337116957  0.7369240024127066  0.32525164063554257  1.0000
  O   O3        1.0  0.5194735955446959  0.7986014462076128  0.8966572596982587  1.0000
  O   O4        1.0  0.9611348489997908  0.5310020271572284  0.9098805802641436  1.0000
  O   O5        1.0  0.22743947748676874  0.6727891196496785  0.34417142206530116  1.0000
  O   O6        1.0  0.5302810593275353  0.07876587193459272  0.6373457348090596  1.0000
  O   O7        1.0  0.6211157850921154  0.5147528261877596  0.21814007192733698  1.0000
  O   O8        1.0  0.33624522871105  0.7836340620415285  0.09297805593814701  1.0000
  O   O9        1.0  0.5628665410913527  0.5924264677596511  0.11856911919312552  1.0000
  O   O10       1.0  0.8823341172392247  0.4323221348458901  0.2438546062912792  1.0000
data_image103
_chemical_formula_structural       Sr2Cu2H12O10
_chemical_formula_sum              "Sr2 Cu2 H12 O10"
_cell_length_a       6.296725
_cell_length_b       5.467378000000002
_cell_length_c       7.977295878227032
_cell_angle_alpha    72.20561901156641
_cell_angle_beta     90.0
_cell_angle_gamma    90.0

_space_group_name_H-M_alt    "P 1"
_space_group_IT_number       1

loop_
  _space_group_symop_operation_xyz
  'x, y, z'

loop_
  _atom_site_type_symbol
  _atom_site_label
  _atom_site_symmetry_multiplicity
  _atom_site_fract_x
  _atom_site_fract_y
  _atom_site_fract_z
  _atom_site_occupancy
  Sr  Sr1       1.0  0.25913644419051707  0.5153036448573403  0.6153019921039231  1.0000
  Sr  Sr2       1.0  0.08546018658671528  0.8834157682722434  0.9575111747253686  1.0000
  Cu  Cu1       1.0  0.5476837312453426  0.7182377425488085  0.8681249676737934  1.0000
  Cu  Cu2       1.0  0.7964994625654072  0.4958448901306838  0.45244525535963476  1.0000
  H   H1        1.0  0.9610199327580631  0.8439299393212423  0.29984856746159494  1.0000
  H   H2        1.0  0.7609472176991403  0.9026184438262135  0.0048799170181155205  1.0000
  H   H3        1.0  0.960136872716248  0.9077064022421837  0.3228090605698526  1.0000
  H   H4        1.0  0.7590793771669269  0.7078832555562258  0.3920422929804772  1.0000
  H   H5        1.0  0.6290935130673461  0.6366082697641104  0.18115649407263845  1.0000
  H   H6        1.0  0.8809419508324936  0.1104590830145753  0.8902442096732557  1.0000
  H   H7        1.0  0.18919367878697813  0.7043813178315759  0.22619468241464347  1.0000
  H   H8        1.0  0.6915171011351049  0.197600819170475  0.7817843982484192  1.0000
  H   H9        1.0  0.4193865922279656  0.5084866178513039  0.49383215978741646  1.0000
  H   H10       1.0  0.8144583364482969  0.770107455085963  0.21464227326214314  1.0000
  H   H11       1.0  0.19482139497995377  0.8700218265876174  0.4612151994369924  1.0000
  H   H12       1.0  0.46554956305772066  0.6934004509821534  0.10678692441433668  1.0000
  O   O1        1.0  0.14825901441508904  0.7406253171793651  0.42783982551191  1.0000
  O   O2        1.0  0.7700434741564095  0.1718259286135435  0.6571568453218788  1.0000
  O   O3        1.0  0.4715564604848623  0.020602487842552364  0.7553729494102299  1.0000
  O   O4        1.0  0.7229981371201575  0.1278464893111959  0.29832109017297626  1.0000
  O   O5        1.0  0.8080552300089039  0.31027618516236544  0.4492710346530657  1.0000
  O   O6        1.0  0.3535796917276457  0.656407461501658  0.9954134354484268  1.0000
  O   O7        1.0  0.495718291727826  0.3205907710362226  0.7066404310753569  1.0000
  O   O8        1.0  0.13243208127096295  0.832018346642144  0.12072251946665347  1.0000
  O   O9        1.0  0.9692491921596229  0.9258343586552655  0.28947862799395807  1.0000
  O   O10       1.0  0.9156345216033515  0.8544866709271446  0.512439017300494  1.0000
data_image104
_chemical_formula_structural       Sr2Cu2H12O10
_chemical_formula_sum              "Sr2 Cu2 H12 O10"
_cell_length_a       6.296725
_cell_length_b       5.467378000000002
_cell_length_c       7.977295878227032
_cell_angle_alpha    72.20561901156641
_cell_angle_beta     90.0
_cell_angle_gamma    90.0

_space_group_name_H-M_alt    "P 1"
_space_group_IT_number       1

loop_
  _space_group_symop_operation_xyz
  'x, y, z'

loop_
  _atom_site_type_symbol
  _atom_site_label
  _atom_site_symmetry_multiplicity
  _atom_site_fract_x
  _atom_site_fract_y
  _atom_site_fract_z
  _atom_site_occupancy
  Sr  Sr1       1.0  0.4914441977161914  0.40336025356373284  0.8198123261681758  1.0000
  Sr  Sr2       1.0  0.5658377687213942  0.3009395144181326  0.2882193818804808  1.0000
  Cu  Cu1       1.0  0.8559176241979003  0.8573142185341567  0.15040623839013278  1.0000
  Cu  Cu2       1.0  0.24439757806248963  0.4562893370166421  0.8498609110247344  1.0000
  H   H1        1.0  0.7156136848498136  0.8978837492177263  0.8846005615778267  1.0000
  H   H2        1.0  0.5347329219803214  0.49975450395140797  0.4851670549251139  1.0000
  H   H3        1.0  0.2013202360831201  0.8238651715219021  0.5090877497568727  1.0000
  H   H4        1.0  0.30753746442496777  0.8923260988667607  0.6298982102889568  1.0000
  H   H5        1.0  0.7876148626673967  0.3642604369088076  0.5417392001254484  1.0000
  H   H6        1.0  0.5771268175449222  0.8246125047735404  0.6069683530367911  1.0000
  H   H7        1.0  0.6880903246346861  0.4395522717386484  0.6348568005487323  1.0000
  H   H8        1.0  0.6857932775747031  0.7653468386270106  0.3257470054086298  1.0000
  H   H9        1.0  0.6305192587897182  0.21633335918886587  0.15545961679890752  1.0000
  H   H10       1.0  0.32317822286859155  0.13352202123496681  0.12165120663121343  1.0000
  H   H11       1.0  0.2891237586736679  0.668914817928453  0.05314726009964943  1.0000
  H   H12       1.0  0.7162119816057384  0.22962875990197062  0.5256245592609048  1.0000
  O   O1        1.0  0.3310016551113222  0.6340888350678142  3.066728822886944e-05  1.0000
  O   O2        1.0  0.9945401987060905  0.6283742659725249  0.9325483376160264  1.0000
  O   O3        1.0  0.6737517456058413  0.6330584980314597  0.7514394299359992  1.0000
  O   O4        1.0  0.1192666698480025  0.1249135899997782  0.522852836875245  1.0000
  O   O5        1.0  0.6396216013235971  0.5496212845901027  0.07446752247051336  1.0000
  O   O6        1.0  0.25756306608673185  0.18635526672005653  0.27274895721348  1.0000
  O   O7        1.0  0.3061434076516889  0.7895114033017308  0.9123889488400891  1.0000
  O   O8        1.0  0.8036310024908744  0.9479026634944603  0.8291094554588199  1.0000
  O   O9        1.0  0.5839884111192077  0.3809250729318592  0.532904245541431  1.0000
  O   O10       1.0  0.8125310954346787  0.0011297520250082016  0.7775697015458718  1.0000
data_image105
_chemical_formula_structural       Sr2Cu2H12O10
_chemical_formula_sum              "Sr2 Cu2 H12 O10"
_cell_length_a       6.296725
_cell_length_b       5.467378000000002
_cell_length_c       7.977295878227032
_cell_angle_alpha    72.20561901156641
_cell_angle_beta     90.0
_cell_angle_gamma    90.0

_space_group_name_H-M_alt    "P 1"
_space_group_IT_number       1

loop_
  _space_group_symop_operation_xyz
  'x, y, z'

loop_
  _atom_site_type_symbol
  _atom_site_label
  _atom_site_symmetry_multiplicity
  _atom_site_fract_x
  _atom_site_fract_y
  _atom_site_fract_z
  _atom_site_occupancy
  Sr  Sr1       1.0  0.8876931807026267  0.17665120905439835  0.5619515169528313  1.0000
  Sr  Sr2       1.0  0.8894776286615524  0.2372656298102811  0.7241475621704012  1.0000
  Cu  Cu1       1.0  0.8293526124907658  0.37266505882143974  0.7865260380785912  1.0000
  Cu  Cu2       1.0  0.43758937949314713  0.1667397420387715  0.4976796261034906  1.0000
  H   H1        1.0  0.6364467537496239  0.3218177488306537  0.22469387273304164  1.0000
  H   H2        1.0  0.5833451496437192  0.03201738093048334  0.5725069064646959  1.0000
  H   H3        1.0  0.7440942303510383  0.38968709483742714  0.7836364824324846  1.0000
  H   H4        1.0  0.8732886640354991  0.42283865343779325  0.7175239464268088  1.0000
  H   H5        1.0  0.7775211104308255  0.7929083863564301  0.6722591428551823  1.0000
  H   H6        1.0  0.7457600820343941  0.5811913438374177  0.4570381850935519  1.0000
  H   H7        1.0  0.37218440254218876  0.9346201289445162  0.40711124273366295  1.0000
  H   H8        1.0  0.6834824869874865  0.6373657444491982  0.8486310506705195  1.0000
  H   H9        1.0  0.05033227754756808  0.7041587859275751  0.43945906590670347  1.0000
  H   H10       1.0  0.7292723110876977  0.7801549547584727  0.08314872812479734  1.0000
  H   H11       1.0  0.07144170277751982  0.8555911479052156  0.1096745312679559  1.0000
  H   H12       1.0  0.48324166191741824  0.6521762060001493  0.20784249808639288  1.0000
  O   O1        1.0  0.7465994337107986  0.9359008150058798  0.5888004020089284  1.0000
  O   O2        1.0  0.7442333055660129  0.7940829107537866  0.33278820442501456  1.0000
  O   O3        1.0  0.15862739086151123  0.9923119941959158  0.7056977216852829  1.0000
  O   O4        1.0  0.521889417199418  0.889212208596291  0.06558696611318737  1.0000
  O   O5        1.0  0.9541113678133115  0.43387939233798534  0.581791356933536  1.0000
  O   O6        1.0  0.4582817998016253  0.8250928849447519  0.42321920132962987  1.0000
  O   O7        1.0  0.40687503904337063  0.6135595077648759  0.8199134191090707  1.0000
  O   O8        1.0  0.7643141316075344  0.7630154214566574  0.9818362283986062  1.0000
  O   O9        1.0  0.705776957271155  0.15246529180149082  0.015507539035752416  1.0000
  O   O10       1.0  0.6736098062101519  0.11783088347874582  0.636130397208035  1.0000
data_image106
_chemical_formula_structural       Sr2Cu2H12O10
_chemical_formula_sum              "Sr2 Cu2 H12 O10"
_cell_length_a       6.296725
_cell_length_b       5.467378000000002
_cell_length_c       7.977295878227032
_cell_angle_alpha    72.20561901156641
_cell_angle_beta     90.0
_cell_angle_gamma    90.0

_space_group_name_H-M_alt    "P 1"
_space_group_IT_number       1

loop_
  _space_group_symop_operation_xyz
  'x, y, z'

loop_
  _atom_site_type_symbol
  _atom_site_label
  _atom_site_symmetry_multiplicity
  _atom_site_fract_x
  _atom_site_fract_y
  _atom_site_fract_z
  _atom_site_occupancy
  Sr  Sr1       1.0  0.23992822680156678  0.7149236958794063  0.9032033497933298  1.0000
  Sr  Sr2       1.0  0.6121481359296013  0.7872264364268631  0.8178792366525158  1.0000
  Cu  Cu1       1.0  0.4393281919765286  0.6880110821221024  0.12797877565026283  1.0000
  Cu  Cu2       1.0  0.08252792689017951  0.6901548111345619  0.12297606049105525  1.0000
  H   H1        1.0  0.10045805131085217  0.46365109272301197  0.31043491209857166  1.0000
  H   H2        1.0  0.824657004326582  0.8001537073869258  0.34325950499624014  1.0000
  H   H3        1.0  0.8886235888348892  0.08030852861702442  0.4063732265494764  1.0000
  H   H4        1.0  0.08847138658165932  0.4707122491672635  0.7097904570400715  1.0000
  H   H5        1.0  0.48818382411263883  0.2127228969184216  0.02117746660951525  1.0000
  H   H6        1.0  0.4609532533213496  0.9041361288109329  0.03395573562011123  1.0000
  H   H7        1.0  0.039331528125330806  0.8932443950325251  0.1805256596474436  1.0000
  H   H8        1.0  0.682055456447415  0.9481733373831958  0.39219237375073135  1.0000
  H   H9        1.0  0.5446553607471287  0.2440902854432352  0.004325623158365488  1.0000
  H   H10       1.0  0.11199650133494288  0.03063083882443607  0.5373560695443302  1.0000
  H   H11       1.0  0.5274011720903218  0.12227527797222137  0.8830515302252024  1.0000
  H   H12       1.0  0.5491024339571595  0.6196712590754032  0.8873520540073514  1.0000
  O   O1        1.0  0.64690233427973  0.6838759583770297  0.7321208959328942  1.0000
  O   O2        1.0  0.15940846921876073  0.009705132339149714  0.8818370411172509  1.0000
  O   O3        1.0  0.5772871661465615  0.8376061206217855  0.8306904413038865  1.0000
  O   O4        1.0  0.8849646766902879  0.11733031537733041  0.5521997180767357  1.0000
  O   O5        1.0  0.6355863392818719  0.6309560039080679  0.11119181198591832  1.0000
  O   O6        1.0  0.7045412824954838  0.3169434752780944  0.3910186936846003  1.0000
  O   O7        1.0  0.7368713679607026  0.2480233481619507  0.9159342930361163  1.0000
  O   O8        1.0  0.13077952567255124  0.776095298002474  0.1457697182195261  1.0000
  O   O9        1.0  0.6022604554891586  0.41794637734710705  0.9877323238179088  1.0000
  O   O10       1.0  0.8199958697659895  0.1964065209031105  0.07237754680681974  1.0000
data_image107
_chemical_formula_structural       Sr2Cu2H12O10
_chemical_formula_sum              "Sr2 Cu2 H12 O10"
_cell_length_a       6.296725
_cell_length_b       5.467378000000002
_cell_length_c       7.977295878227032
_cell_angle_alpha    72.20561901156641
_cell_angle_beta     90.0
_cell_angle_gamma    90.0

_space_group_name_H-M_alt    "P 1"
_space_group_IT_number       1

loop_
  _space_group_symop_operation_xyz
  'x, y, z'

loop_
  _atom_site_type_symbol
  _atom_site_label
  _atom_site_symmetry_multiplicity
  _atom_site_fract_x
  _atom_site_fract_y
  _atom_site_fract_z
  _atom_site_occupancy
  Sr  Sr1       1.0  0.01772876991890371  0.8095733124646358  0.5395570352557115  1.0000
  Sr  Sr2       1.0  0.8863278045319021  0.6802524972008541  0.49907720915507525  1.0000
  Cu  Cu1       1.0  0.4716255509410985  0.9620897530112416  0.17918310046661645  1.0000
  Cu  Cu2       1.0  0.8754529133439064  0.6492753352504224  0.6978976901154965  1.0000
  H   H1        1.0  0.8758888624142855  0.7561455429531634  0.16285014618188143  1.0000
  H   H2        1.0  0.9459931273013353  0.7982725367182866  0.6361867925152183  1.0000
  H   H3        1.0  0.7258911670651287  0.3378154095262289  0.9745415989309549  1.0000
  H   H4        1.0  0.09522826690226793  0.5329488841816783  0.96552928769961  1.0000
  H   H5        1.0  0.5517318443162367  0.35875875427154824  0.6786484331823885  1.0000
  H   H6        1.0  0.01932599302381277  0.38696878036716953  0.37425990076735616  1.0000
  H   H7        1.0  0.25699173938483  0.5212820041924715  0.24178618774021743  1.0000
  H   H8        1.0  0.11589821861707605  0.1876919479109347  0.5128296178299934  1.0000
  H   H9        1.0  0.9082814562134445  0.7387670476455241  0.7186106075532734  1.0000
  H   H10       1.0  0.4843979215947911  0.08253823383711278  0.6266893029678613  1.0000
  H   H11       1.0  0.5394703477941221  0.8195756990462542  0.9018198791891336  1.0000
  H   H12       1.0  0.7878497499041259  0.06449448969215155  0.4331802763044834  1.0000
  O   O1        1.0  0.3596944887394784  0.2565253840293735  0.8498351437156089  1.0000
  O   O2        1.0  0.7419179412536323  0.04783594561740756  0.06598851387389004  1.0000
  O   O3        1.0  0.9982794625684619  0.20705550187267363  0.9954569595865905  1.0000
  O   O4        1.0  0.613299805438146  0.49629125726642087  0.8496595314936712  1.0000
  O   O5        1.0  0.6526641738601029  0.18425044987816364  0.8061777862458257  1.0000
  O   O6        1.0  0.1560367769561708  0.31756613054312766  0.9619938668329269  1.0000
  O   O7        1.0  0.2706558972131461  0.44925956591032445  0.8566393013752531  1.0000
  O   O8        1.0  0.935017321491614  0.27548842423129827  0.3080751318484545  1.0000
  O   O9        1.0  0.3696962807443924  0.258434563249466  0.5142337058787234  1.0000
  O   O10       1.0  0.6582387812959496  0.21889756573364139  0.20637632231228054  1.0000
data_image108
_chemical_formula_structural       Sr2Cu2H12O10
_chemical_formula_sum              "Sr2 Cu2 H12 O10"
_cell_length_a       6.296725
_cell_length_b       5.467378000000002
_cell_length_c       7.977295878227032
_cell_angle_alpha    72.20561901156641
_cell_angle_beta     90.0
_cell_angle_gamma    90.0

_space_group_name_H-M_alt    "P 1"
_space_group_IT_number       1

loop_
  _space_group_symop_operation_xyz
  'x, y, z'

loop_
  _atom_site_type_symbol
  _atom_site_label
  _atom_site_symmetry_multiplicity
  _atom_site_fract_x
  _atom_site_fract_y
  _atom_site_fract_z
  _atom_site_occupancy
  Sr  Sr1       1.0  0.4980422309599817  0.9259422353061382  0.18909316544886678  1.0000
  Sr  Sr2       1.0  0.930952210095711  0.8255258202552795  0.4792951272102073  1.0000
  Cu  Cu1       1.0  0.6225456660031341  0.24352034414187074  0.8469492760486901  1.0000
  Cu  Cu2       1.0  0.7132621484342963  0.8425609930418432  0.11859782855026424  1.0000
  H   H1        1.0  0.8828872097656131  0.28265378216747195  0.476340158842504  1.0000
  H   H2        1.0  0.8867065620142967  0.8362214956432581  0.2506484151817858  1.0000
  H   H3        1.0  0.540775223984383  0.5148082859814167  0.5245450050570071  1.0000
  H   H4        1.0  0.5706456918269396  0.923507341183722  0.6215887106955051  1.0000
  H   H5        1.0  0.6461599019821733  0.3328053054283373  0.494800039450638  1.0000
  H   H6        1.0  0.7065853646490723  0.3831822052379721  0.5236845216713846  1.0000
  H   H7        1.0  0.30502269812859595  0.7098778020590544  0.957031188896508  1.0000
  H   H8        1.0  0.16034055445925333  0.4830247724894434  0.35516395629383624  1.0000
  H   H9        1.0  0.055240785237401724  0.0639286917867139  0.5493951868265867  1.0000
  H   H10       1.0  0.9166516638360918  0.29710140643874183  0.7070483539719135  1.0000
  H   H11       1.0  0.8622323201270774  0.09189916215837002  0.08854672301094979  1.0000
  H   H12       1.0  0.3186317407526076  0.2997319917194545  0.9981661383062601  1.0000
  O   O1        1.0  0.10626065018004738  0.45919697103090584  0.6644789032288827  1.0000
  O   O2        1.0  0.465917382389307  0.6367516643367708  0.5971464824397117  1.0000
  O   O3        1.0  0.5724802610930055  0.4209575444692746  0.8217551116831601  1.0000
  O   O4        1.0  0.14988704898860306  0.997551973327063  0.2637933217920363  1.0000
  O   O5        1.0  0.45419432380003855  0.7686673999996856  0.35631172952707857  1.0000
  O   O6        1.0  0.257403381052427  0.6832586815580726  0.6598024800769053  1.0000
  O   O7        1.0  0.9394994411850348  0.9450109840836376  0.6534246480441652  1.0000
  O   O8        1.0  0.24567500848206691  0.8378073192434385  0.3170877950033173  1.0000
  O   O9        1.0  0.37622982054017484  0.9664849307519034  0.8998995030997321  1.0000
  O   O10       1.0  0.6055532916361699  0.6472877927590162  0.7722949914168566  1.0000
data_image109
_chemical_formula_structural       Sr2Cu2H12O10
_chemical_formula_sum              "Sr2 Cu2 H12 O10"
_cell_length_a       6.296725
_cell_length_b       5.467378000000002
_cell_length_c       7.977295878227032
_cell_angle_alpha    72.20561901156641
_cell_angle_beta     90.0
_cell_angle_gamma    90.0

_space_group_name_H-M_alt    "P 1"
_space_group_IT_number       1

loop_
  _space_group_symop_operation_xyz
  'x, y, z'

loop_
  _atom_site_type_symbol
  _atom_site_label
  _atom_site_symmetry_multiplicity
  _atom_site_fract_x
  _atom_site_fract_y
  _atom_site_fract_z
  _atom_site_occupancy
  Sr  Sr1       1.0  0.8474607170792297  0.42776788666378707  0.5191584379062988  1.0000
  Sr  Sr2       1.0  0.7396041393221822  0.5382730986457318  0.46467117476277053  1.0000
  Cu  Cu1       1.0  0.9739128793007694  0.31048145540989935  0.764860833180137  1.0000
  Cu  Cu2       1.0  0.39403384597972035  0.9148128656670451  0.32787637133151293  1.0000
  H   H1        1.0  0.5102901714853942  0.8894800217822194  0.8744646206032485  1.0000
  H   H2        1.0  0.4835311088245362  0.9353353027254343  0.36939920019358397  1.0000
  H   H3        1.0  0.4123563371831551  0.7698624115437269  0.8444602875970304  1.0000
  H   H4        1.0  0.15668385289609432  0.5854644663631916  0.16705613606609404  1.0000
  H   H5        1.0  0.023462622542865574  0.05943545518675819  0.8172317513963208  1.0000
  H   H6        1.0  0.1358570281881839  0.6757397005312669  0.5726523189805448  1.0000
  H   H7        1.0  0.7562907782848924  0.7871004305779934  0.25959525792859495  1.0000
  H   H8        1.0  0.7542261001071893  0.7051401864737272  0.790680042700842  1.0000
  H   H9        1.0  0.5499921524897218  0.19388934405287728  0.28795084170997143  1.0000
  H   H10       1.0  0.2800527169601992  0.23713202879298478  0.9960428923368454  1.0000
  H   H11       1.0  0.4106843750923872  0.9840218173339963  0.7777135482756421  1.0000
  H   H12       1.0  0.09242455055937171  0.8509029112756252  0.08712152112275362  1.0000
  O   O1        1.0  0.04428412347624544  0.15170097787631676  0.21218478522496298  1.0000
  O   O2        1.0  0.14454941870644689  0.78823003731668  0.1629711538553238  1.0000
  O   O3        1.0  0.9693126915954053  0.22838304447941482  0.8687978973612189  1.0000
  O   O4        1.0  0.19087047025095671  0.1907096579670906  0.09401884453836828  1.0000
  O   O5        1.0  0.864045622292906  0.4605679641244933  0.5477718269830802  1.0000
  O   O6        1.0  0.6582909754943103  0.9296850913669914  0.594765504996758  1.0000
  O   O7        1.0  0.8060034826630726  0.3715831560548395  0.8246741239272524  1.0000
  O   O8        1.0  0.36402416237979196  0.26844982197508216  0.46426614420488477  1.0000
  O   O9        1.0  0.243243619275745  0.4311826610137359  0.8527622813708149  1.0000
  O   O10       1.0  0.2428688467189204  0.7171474293572828  0.29657886177301407  1.0000
data_image110
_chemical_formula_structural       Sr2Cu2H12O10
_chemical_formula_sum              "Sr2 Cu2 H12 O10"
_cell_length_a       6.296725
_cell_length_b       5.467378000000002
_cell_length_c       7.977295878227032
_cell_angle_alpha    72.20561901156641
_cell_angle_beta     90.0
_cell_angle_gamma    90.0

_space_group_name_H-M_alt    "P 1"
_space_group_IT_number       1

loop_
  _space_group_symop_operation_xyz
  'x, y, z'

loop_
  _atom_site_type_symbol
  _atom_site_label
  _atom_site_symmetry_multiplicity
  _atom_site_fract_x
  _atom_site_fract_y
  _atom_site_fract_z
  _atom_site_occupancy
  Sr  Sr1       1.0  0.5463348272023723  0.8093195741530508  0.09932241035858169  1.0000
  Sr  Sr2       1.0  0.20847311156103387  0.7415402454789728  0.82349643582711  1.0000
  Cu  Cu1       1.0  0.019586721842642874  0.44347722735255957  0.32173618022352457  1.0000
  Cu  Cu2       1.0  0.3817700259387493  0.45631054672412574  0.3150064595974982  1.0000
  H   H1        1.0  0.002692954847589135  0.8915386025328189  0.8038590198848397  1.0000
  H   H2        1.0  0.5633321302011609  0.6804835491348058  0.9937585853040218  1.0000
  H   H3        1.0  0.49970382219180465  0.09831368178129196  0.9503306122496724  1.0000
  H   H4        1.0  0.3456907356157899  0.2999332947656512  0.1418200416956097  1.0000
  H   H5        1.0  0.7412211012560874  0.09088853531284258  0.7822194782784209  1.0000
  H   H6        1.0  0.3461455078795552  0.5051576611085693  0.1596013093367219  1.0000
  H   H7        1.0  0.501213630894199  0.20341154001653194  0.141429168113973  1.0000
  H   H8        1.0  0.8151518566010054  0.04261649330146611  0.10795168136246502  1.0000
  H   H9        1.0  0.816624395083636  0.763256496982649  0.37342069018632174  1.0000
  H   H10       1.0  0.1356799378991127  0.6200458749081008  0.94702333281748  1.0000
  H   H11       1.0  0.36088776332326233  0.8539654202759266  0.4179831310175359  1.0000
  H   H12       1.0  0.06992795551195741  0.4427040754817426  0.006886985152959824  1.0000
  O   O1        1.0  0.4713959321088623  0.3208903715130873  0.1070034330477938  1.0000
  O   O2        1.0  0.48619982646778226  0.5768848047591746  0.22373803367372602  1.0000
  O   O3        1.0  0.6649007683154196  0.47004635410849005  0.23449340660590678  1.0000
  O   O4        1.0  0.9159868364222348  0.998944118298823  0.6284461350878701  1.0000
  O   O5        1.0  0.2569006265257485  0.260676187928766  0.9875485673110234  1.0000
  O   O6        1.0  0.736784010543488  0.2880614933092147  0.6464934634277597  1.0000
  O   O7        1.0  0.8082451013033278  0.12997557688504457  0.4160294460016303  1.0000
  O   O8        1.0  0.872973809047835  0.17583399545401335  0.5045315239112824  1.0000
  O   O9        1.0  0.5950213027535938  0.7928303282242268  0.3353197769029066  1.0000
  O   O10       1.0  0.5882476009719539  0.6275243515847251  0.26590353006031364  1.0000
data_image111
_chemical_formula_structural       Sr2Cu2H12O10
_chemical_formula_sum              "Sr2 Cu2 H12 O10"
_cell_length_a       6.296725
_cell_length_b       5.467378000000002
_cell_length_c       7.977295878227032
_cell_angle_alpha    72.20561901156641
_cell_angle_beta     90.0
_cell_angle_gamma    90.0

_space_group_name_H-M_alt    "P 1"
_space_group_IT_number       1

loop_
  _space_group_symop_operation_xyz
  'x, y, z'

loop_
  _atom_site_type_symbol
  _atom_site_label
  _atom_site_symmetry_multiplicity
  _atom_site_fract_x
  _atom_site_fract_y
  _atom_site_fract_z
  _atom_site_occupancy
  Sr  Sr1       1.0  0.30028916767332703  0.767340648220852  0.47765970817999914  1.0000
  Sr  Sr2       1.0  0.09615736891282722  0.17623679363168776  0.7560995887615718  1.0000
  Cu  Cu1       1.0  0.04487386730033904  0.11087358114309609  0.3033817190444097  1.0000
  Cu  Cu2       1.0  0.20137205766513944  0.08856621943414211  0.01951605430804193  1.0000
  H   H1        1.0  0.9194511498790234  0.3725220978958532  0.9659263393841684  1.0000
  H   H2        1.0  0.1108173809479922  0.3781662960536778  0.04024144262075424  1.0000
  H   H3        1.0  0.4929371002363041  0.3038719091564417  0.6538022928871214  1.0000
  H   H4        1.0  0.3703498328104615  0.7472613174468279  0.378434207290411  1.0000
  H   H5        1.0  0.09977330758556491  0.4373501787194982  0.114708635606803  1.0000
  H   H6        1.0  0.45332039264030755  0.05848782050588852  0.6144280885346234  1.0000
  H   H7        1.0  0.5512937582097948  0.6740460954606533  0.1725985904922709  1.0000
  H   H8        1.0  0.40276722502312623  0.9546883630100638  0.24952225061133504  1.0000
  H   H9        1.0  0.24610387301072478  0.5142689787317067  0.07727507269009948  1.0000
  H   H10       1.0  0.11936670856084675  0.9801416737609543  0.4480723317246884  1.0000
  H   H11       1.0  0.9707808583043516  0.998024164699018  0.515807566116564  1.0000
  H   H12       1.0  0.6887285779230297  0.9107208275236189  0.7666938677430153  1.0000
  O   O1        1.0  0.6373762652801815  0.3417345368943643  0.49363311647903174  1.0000
  O   O2        1.0  0.8491925527341664  0.6738354316912591  0.564748824457638  1.0000
  O   O3        1.0  0.6116329557262361  0.42545613646507263  0.09243372967466712  1.0000
  O   O4        1.0  0.36527460312936455  0.8709705299843336  0.2167996239149943  1.0000
  O   O5        1.0  0.01620706234825775  0.30389014596585184  0.8888898604782298  1.0000
  O   O6        1.0  0.8849607614101842  0.863139633089304  0.1975540909334086  1.0000
  O   O7        1.0  0.4000630062073469  0.3076427762862295  0.6949848798976745  1.0000
  O   O8        1.0  0.43819392066507135  0.6938502333359793  0.3747536625014618  1.0000
  O   O9        1.0  0.5611810137052089  0.6267636828270042  0.3975169750628993  1.0000
  O   O10       1.0  0.37710419540235307  0.24727699684444815  0.4157422691350803  1.0000
data_image112
_chemical_formula_structural       Sr2Cu2H12O10
_chemical_formula_sum              "Sr2 Cu2 H12 O10"
_cell_length_a       6.296725
_cell_length_b       5.467378000000002
_cell_length_c       7.977295878227032
_cell_angle_alpha    72.20561901156641
_cell_angle_beta     90.0
_cell_angle_gamma    90.0

_space_group_name_H-M_alt    "P 1"
_space_group_IT_number       1

loop_
  _space_group_symop_operation_xyz
  'x, y, z'

loop_
  _atom_site_type_symbol
  _atom_site_label
  _atom_site_symmetry_multiplicity
  _atom_site_fract_x
  _atom_site_fract_y
  _atom_site_fract_z
  _atom_site_occupancy
  Sr  Sr1       1.0  0.6006057180929929  0.9379813105042558  0.3820664979284629  1.0000
  Sr  Sr2       1.0  0.616704592917813  0.4709154225420207  0.4636182796093635  1.0000
  Cu  Cu1       1.0  0.34587035910226405  0.6532248256262392  0.707648700568825  1.0000
  Cu  Cu2       1.0  0.5186749554704875  0.24373218161053956  0.36873397696763277  1.0000
  H   H1        1.0  0.7599481381475925  0.32927209266927093  0.8451939853839576  1.0000
  H   H2        1.0  0.5265715555287898  0.9580248086713254  0.7531773769296706  1.0000
  H   H3        1.0  0.21257085469551384  0.19491487368941307  0.39834347926080227  1.0000
  H   H4        1.0  0.5728980675339699  0.5306139038875699  0.47755827265791595  1.0000
  H   H5        1.0  0.31399968289770186  0.08253691950812936  0.6623110387008637  1.0000
  H   H6        1.0  0.15644892095588148  0.9320336949595003  0.9116806662641466  1.0000
  H   H7        1.0  0.805600595427677  0.6265155151486397  0.6803796340973349  1.0000
  H   H8        1.0  0.37838096206542104  0.6189654010813683  0.013669473584741354  1.0000
  H   H9        1.0  0.6056154044345021  0.2976912148296833  0.34095481550320983  1.0000
  H   H10       1.0  0.6693723235512152  0.5651427602861077  0.34987618541345  1.0000
  H   H11       1.0  0.5187215062323958  0.4246239587664604  0.12611433526035398  1.0000
  H   H12       1.0  0.18413477391004562  0.17250815266743302  0.9343160083517432  1.0000
  O   O1        1.0  0.8511874243122293  0.5179230896465015  0.4698632085346617  1.0000
  O   O2        1.0  0.622194065246731  0.0593777047470212  0.18222727382089943  1.0000
  O   O3        1.0  0.4686670834198594  0.4734275145456195  0.7646770667051896  1.0000
  O   O4        1.0  0.9822079339064658  0.9804235055344179  0.18458411423489451  1.0000
  O   O5        1.0  0.5360778803587891  0.6807187790982425  0.8542221159441397  1.0000
  O   O6        1.0  0.812233870383352  0.6883049726020545  0.394925132393837  1.0000
  O   O7        1.0  0.7789134837221354  0.5973655057605356  0.06455688233836554  1.0000
  O   O8        1.0  0.48896385183616076  0.9147037577349693  0.7440128054004163  1.0000
  O   O9        1.0  0.8738218921935186  0.4150646482448792  0.6357799215475097  1.0000
  O   O10       1.0  0.6241477506409865  0.4872152650495991  0.12337583058979362  1.0000
data_image113
_chemical_formula_structural       Sr2Cu2H12O10
_chemical_formula_sum              "Sr2 Cu2 H12 O10"
_cell_length_a       6.296725
_cell_length_b       5.467378000000002
_cell_length_c       7.977295878227032
_cell_angle_alpha    72.20561901156641
_cell_angle_beta     90.0
_cell_angle_gamma    90.0

_space_group_name_H-M_alt    "P 1"
_space_group_IT_number       1

loop_
  _space_group_symop_operation_xyz
  'x, y, z'

loop_
  _atom_site_type_symbol
  _atom_site_label
  _atom_site_symmetry_multiplicity
  _atom_site_fract_x
  _atom_site_fract_y
  _atom_site_fract_z
  _atom_site_occupancy
  Sr  Sr1       1.0  0.1516631409758702  0.2186568466713652  0.17896405863575637  1.0000
  Sr  Sr2       1.0  0.6574763553217053  0.38616833987180144  0.5269746055710129  1.0000
  Cu  Cu1       1.0  0.8528932865592651  0.5120841609314084  0.7651207335293293  1.0000
  Cu  Cu2       1.0  0.8364562427159399  0.06057684286497533  0.45175210386514664  1.0000
  H   H1        1.0  0.3365984186530113  0.9391976160695776  0.6709298468194902  1.0000
  H   H2        1.0  0.8520784936845303  0.766827451530844  0.15602651936933398  1.0000
  H   H3        1.0  0.48271191550884396  0.19407228007912636  0.6063787559978664  1.0000
  H   H4        1.0  0.3090378800407052  0.36190159898251295  0.25685021886602044  1.0000
  H   H5        1.0  0.13955355482175946  0.36841601389460266  0.8259796113707125  1.0000
  H   H6        1.0  0.21876096352934837  0.9136665618752886  0.9351927409879863  1.0000
  H   H7        1.0  0.32557306508533657  0.8468726705759764  0.015206878131721169  1.0000
  H   H8        1.0  0.938417469675187  0.41123259742744267  0.7238726995419711  1.0000
  H   H9        1.0  0.6038678344339132  0.2386794025078416  0.34637725027278066  1.0000
  H   H10       1.0  0.17804631299804896  0.8521136429626495  0.07552615134045482  1.0000
  H   H11       1.0  0.24181826622225344  0.17798264976590872  0.888726127683185  1.0000
  H   H12       1.0  0.9166521416045725  0.11391122126951814  0.9407988749444485  1.0000
  O   O1        1.0  0.6723563588311663  0.4741687017667573  0.7554869516170584  1.0000
  O   O2        1.0  0.29811440547928214  0.6389654222875834  0.06701877957675606  1.0000
  O   O3        1.0  0.4428062567021698  0.6853656657040119  0.16912743053399026  1.0000
  O   O4        1.0  0.10425324831157923  0.5279679296654649  0.4386242753826082  1.0000
  O   O5        1.0  0.8275948507944122  0.30318132671527565  0.36559394176583737  1.0000
  O   O6        1.0  0.9373515757033601  0.559674421325326  0.7501307221828029  1.0000
  O   O7        1.0  0.5191099822404794  0.5091270934790373  0.43416561459889635  1.0000
  O   O8        1.0  0.4905162969516823  0.8538581108441576  0.31896996893920004  1.0000
  O   O9        1.0  0.41852917871437967  0.6025640551233664  0.09004275692859665  1.0000
  O   O10       1.0  0.7948573317844421  0.24547949084080756  0.2336499145021662  1.0000
data_image114
_chemical_formula_structural       Sr2Cu2H12O10
_chemical_formula_sum              "Sr2 Cu2 H12 O10"
_cell_length_a       6.296725
_cell_length_b       5.467378000000002
_cell_length_c       7.977295878227032
_cell_angle_alpha    72.20561901156641
_cell_angle_beta     90.0
_cell_angle_gamma    90.0

_space_group_name_H-M_alt    "P 1"
_space_group_IT_number       1

loop_
  _space_group_symop_operation_xyz
  'x, y, z'

loop_
  _atom_site_type_symbol
  _atom_site_label
  _atom_site_symmetry_multiplicity
  _atom_site_fract_x
  _atom_site_fract_y
  _atom_site_fract_z
  _atom_site_occupancy
  Sr  Sr1       1.0  0.17634713905863464  0.378205679502571  0.28762330289464444  1.0000
  Sr  Sr2       1.0  0.09772959275869653  0.7259080245858058  0.977298793673981  1.0000
  Cu  Cu1       1.0  0.9499920774251223  0.8861845943611115  0.5198745110537857  1.0000
  Cu  Cu2       1.0  0.4506781524978578  0.6276077809743583  0.2428559756372124  1.0000
  H   H1        1.0  0.4537257975898683  0.7257762823719531  0.916809662245214  1.0000
  H   H2        1.0  0.31687434716150165  0.040749498177319765  0.8500964627601206  1.0000
  H   H3        1.0  0.14820944529492408  0.12955618649721146  0.5274193277582526  1.0000
  H   H4        1.0  0.6240042243152857  0.5958743337541819  0.6541448796633631  1.0000
  H   H5        1.0  0.8815057023894042  0.7939875025767833  0.015524060698226094  1.0000
  H   H6        1.0  0.012995465192943811  0.9630444434587844  0.8983784620650113  1.0000
  H   H7        1.0  0.16814919421449304  0.6020888909697533  0.14331329229753464  1.0000
  H   H8        1.0  0.7959742511011427  0.8631102913059294  0.2602383007761091  1.0000
  H   H9        1.0  0.6920170616358519  0.3251889623934403  0.26848795637488365  1.0000
  H   H10       1.0  0.7275087481830269  0.7577775687677786  0.6753486557863653  1.0000
  H   H11       1.0  0.6794886810239404  0.31021091621369123  0.04312879394274205  1.0000
  H   H12       1.0  0.6063028867356479  0.7821473241783679  0.7363320561125875  1.0000
  O   O1        1.0  0.03302293831075076  0.37227940186858177  0.036695900023914874  1.0000
  O   O2        1.0  0.06875490071251988  0.3544028541073203  0.8661241109948605  1.0000
  O   O3        1.0  0.8806406585499644  0.30040825868491083  0.17128369899000973  1.0000
  O   O4        1.0  0.3567300536669791  0.7404829919105396  0.8168679093942046  1.0000
  O   O5        1.0  0.4287044200464152  0.46242387033998966  0.0944594399043126  1.0000
  O   O6        1.0  0.45491385099012405  0.32638761634007096  0.49643247382482514  1.0000
  O   O7        1.0  0.2967394614825025  0.08133457321673632  0.17635936272563413  1.0000
  O   O8        1.0  0.024122459479258396  0.36550711700692773  0.4432253197301179  1.0000
  O   O9        1.0  0.49921943293884397  0.1367085462261457  0.583272387040779  1.0000
  O   O10       1.0  0.9381998280005064  0.02450586238410324  0.07940347120165825  1.0000
data_image115
_chemical_formula_structural       Sr2Cu2H12O10
_chemical_formula_sum              "Sr2 Cu2 H12 O10"
_cell_length_a       6.296725
_cell_length_b       5.467378000000002
_cell_length_c       7.977295878227032
_cell_angle_alpha    72.20561901156641
_cell_angle_beta     90.0
_cell_angle_gamma    90.0

_space_group_name_H-M_alt    "P 1"
_space_group_IT_number       1

loop_
  _space_group_symop_operation_xyz
  'x, y, z'

loop_
  _atom_site_type_symbol
  _atom_site_label
  _atom_site_symmetry_multiplicity
  _atom_site_fract_x
  _atom_site_fract_y
  _atom_site_fract_z
  _atom_site_occupancy
  Sr  Sr1       1.0  0.9436270352452993  0.34082793741254136  0.7440083529800177  1.0000
  Sr  Sr2       1.0  0.9893567739491118  0.3912594487192109  0.144795355736278  1.0000
  Cu  Cu1       1.0  0.8291890794062056  0.5903034550137818  0.730551608139649  1.0000
  Cu  Cu2       1.0  0.8274890829343349  0.21439642016775906  0.5198536159005016  1.0000
  H   H1        1.0  0.34860699577257037  0.5701126935891807  0.8352170269936323  1.0000
  H   H2        1.0  0.8824400303419679  0.288339558057487  0.852568999864161  1.0000
  H   H3        1.0  0.7002218467532657  0.06882178783416748  0.7912068837322295  1.0000
  H   H4        1.0  0.12892378866672516  0.9132838137447834  0.6913741042371839  1.0000
  H   H5        1.0  0.44104995182715356  0.8032694121357054  0.7231010533869267  1.0000
  H   H6        1.0  0.6828888664022088  0.0691205381299369  0.96850057085976  1.0000
  H   H7        1.0  0.9551678341813385  0.7462098300457001  0.5836271757725626  1.0000
  H   H8        1.0  0.06589985509344842  0.7915552316699177  0.18261579191312194  1.0000
  H   H9        1.0  0.5880720699205995  0.46382763609290123  0.8302753390744328  1.0000
  H   H10       1.0  0.3231426108395681  0.524214907491114  0.5425397478975356  1.0000
  H   H11       1.0  0.9161649930756539  0.09183003101497889  0.7075792530085891  1.0000
  H   H12       1.0  0.6321108103729784  0.21582939522340894  0.48093712888658047  1.0000
  O   O1        1.0  0.5902671563671902  0.0042396378121338785  0.6695337527198717  1.0000
  O   O2        1.0  0.3270035292953253  0.14723934745416045  0.9191961644683033  1.0000
  O   O3        1.0  0.0427757753059268  0.8245829472143669  0.6435750214150175  1.0000
  O   O4        1.0  0.8656123059336096  0.26214107556734234  0.30231257155537605  1.0000
  O   O5        1.0  0.7726418448146433  0.6899344876874238  0.1527782671910245  1.0000
  O   O6        1.0  0.27997792651876807  0.44011051557026803  0.3115259151090868  1.0000
  O   O7        1.0  0.9881873683771119  0.48919757176190615  0.4230070940684527  1.0000
  O   O8        1.0  0.6752320085506653  0.2783132386393845  0.5933136122766882  1.0000
  O   O9        1.0  0.28008624917129055  0.6669775950431358  0.12451688363216817  1.0000
  O   O10       1.0  0.6435494780598674  0.24234008707571775  0.8655580593040213  1.0000
data_image116
_chemical_formula_structural       Sr2Cu2H12O10
_chemical_formula_sum              "Sr2 Cu2 H12 O10"
_cell_length_a       6.296725
_cell_length_b       5.467378000000002
_cell_length_c       7.977295878227032
_cell_angle_alpha    72.20561901156641
_cell_angle_beta     90.0
_cell_angle_gamma    90.0

_space_group_name_H-M_alt    "P 1"
_space_group_IT_number       1

loop_
  _space_group_symop_operation_xyz
  'x, y, z'

loop_
  _atom_site_type_symbol
  _atom_site_label
  _atom_site_symmetry_multiplicity
  _atom_site_fract_x
  _atom_site_fract_y
  _atom_site_fract_z
  _atom_site_occupancy
  Sr  Sr1       1.0  0.5157726836623624  0.020898689865134656  0.24024612794164568  1.0000
  Sr  Sr2       1.0  0.4778975927911233  0.4455893321428448  0.9058664755430073  1.0000
  Cu  Cu1       1.0  0.6143298756796867  0.37000859272666276  0.5681249231565744  1.0000
  Cu  Cu2       1.0  0.8074718858115375  0.3585230412427336  0.9745446771848947  1.0000
  H   H1        1.0  0.8379295282065868  0.412376357242465  0.9223981978138909  1.0000
  H   H2        1.0  0.5511232118587941  0.21926792338490486  0.4741364261135459  1.0000
  H   H3        1.0  0.4642097869073041  0.8898845203220844  0.16976242698729038  1.0000
  H   H4        1.0  0.7440425027161837  0.701424683444202  0.4349276759894565  1.0000
  H   H5        1.0  0.7834051571553573  0.5600847820751369  0.6946036475710571  1.0000
  H   H6        1.0  0.33084595049149357  0.955506345257163  0.8943732175976038  1.0000
  H   H7        1.0  0.36511439457535744  0.39039031974971294  0.8666964725125581  1.0000
  H   H8        1.0  0.8827480097388616  0.6287540304474533  0.27777855563908815  1.0000
  H   H9        1.0  0.33069321559742093  0.5425674531143159  0.5901476540602744  1.0000
  H   H10       1.0  0.06764671532437205  0.7562642706325278  0.046777194598689675  1.0000
  H   H11       1.0  0.11535860766889527  0.9435178618878126  0.17230163025669754  1.0000
  H   H12       1.0  0.44038574444130063  0.051153531298041344  0.31198396254330873  1.0000
  O   O1        1.0  0.8330060036532814  0.5678990560991224  0.4805965312407352  1.0000
  O   O2        1.0  0.08016559714451432  0.8117746668867767  0.4753741209860891  1.0000
  O   O3        1.0  0.267657294170931  0.0646899089042563  0.5299551453208551  1.0000
  O   O4        1.0  0.9952045944519341  0.8190113042364828  0.43341980245895684  1.0000
  O   O5        1.0  0.8332244249759242  0.4229348595254123  0.38248447061050683  1.0000
  O   O6        1.0  0.14282175479456782  0.8046121953520924  0.1530428344849497  1.0000
  O   O7        1.0  0.27797868725610897  0.40085280151106417  0.8310656690737233  1.0000
  O   O8        1.0  0.24900071843876503  0.6460180724970996  0.4295280284713954  1.0000
  O   O9        1.0  0.697052021685522  0.011071220884332433  0.5891824132413603  1.0000
  O   O10       1.0  0.10860391979804263  0.9960528853116557  0.7409940049983561  1.0000
data_image117
_chemical_formula_structural       Sr2Cu2H12O10
_chemical_formula_sum              "Sr2 Cu2 H12 O10"
_cell_length_a       6.296725
_cell_length_b       5.467378000000002
_cell_length_c       7.977295878227032
_cell_angle_alpha    72.20561901156641
_cell_angle_beta     90.0
_cell_angle_gamma    90.0

_space_group_name_H-M_alt    "P 1"
_space_group_IT_number       1

loop_
  _space_group_symop_operation_xyz
  'x, y, z'

loop_
  _atom_site_type_symbol
  _atom_site_label
  _atom_site_symmetry_multiplicity
  _atom_site_fract_x
  _atom_site_fract_y
  _atom_site_fract_z
  _atom_site_occupancy
  Sr  Sr1       1.0  0.8695185147225857  0.7536374812625581  0.5286885713867377  1.0000
  Sr  Sr2       1.0  0.08327369461767375  0.10943819407839328  0.07834568421822041  1.0000
  Cu  Cu1       1.0  0.9595655447919853  0.8501118058338761  0.24260450736619532  1.0000
  Cu  Cu2       1.0  0.28058644058182836  0.6664048861712217  0.2398031149059534  1.0000
  H   H1        1.0  0.12097444711253047  0.9003557229880244  0.2313086463836953  1.0000
  H   H2        1.0  0.6954353030305356  0.046967258444055915  0.9206573576666415  1.0000
  H   H3        1.0  0.6786449290229939  0.22235192358493805  0.14826534036546946  1.0000
  H   H4        1.0  0.5186333265155554  0.3795417360961437  0.3818685506703332  1.0000
  H   H5        1.0  0.09783685824368149  0.8547356987837702  0.3415307248942554  1.0000
  H   H6        1.0  0.5124484765110537  0.30289977602660656  0.5554979341104627  1.0000
  H   H7        1.0  0.6867757167201489  0.363076563924551  0.7576533902902156  1.0000
  H   H8        1.0  0.2627552056655986  0.23951808270066977  0.6434920027386397  1.0000
  H   H9        1.0  0.5395718007348478  0.49692636693362147  0.13020263379439712  1.0000
  H   H10       1.0  0.2792563181137666  0.8126921302173287  0.021098832366988063  1.0000
  H   H11       1.0  0.6801128708175384  0.8605036316439509  0.2675462922779843  1.0000
  H   H12       1.0  0.30187379010021687  0.10596953053027391  0.2642427757382393  1.0000
  O   O1        1.0  0.9621539491854492  0.8992272265313659  0.6293456435087137  1.0000
  O   O2        1.0  0.5327248210087419  0.6780383484438062  0.6141480177175254  1.0000
  O   O3        1.0  0.3850286148954183  0.6623789007717278  0.942392791970633  1.0000
  O   O4        1.0  0.960570981958881  0.31418316159397364  0.28616267489269376  1.0000
  O   O5        1.0  0.4012787166866474  0.6545082479715347  0.8254956798482453  1.0000
  O   O6        1.0  0.6776858019875363  0.8271894308272749  0.9548400542116724  1.0000
  O   O7        1.0  0.945248661970254  0.24734475184231997  0.7738405319978483  1.0000
  O   O8        1.0  0.34951022516179364  0.554399729706347  0.35839832038618624  1.0000
  O   O9        1.0  0.12060000028577633  0.7429159363091458  0.11379474442219362  1.0000
  O   O10       1.0  0.7303002330590971  0.5687603575643152  0.2584936359198764  1.0000
data_image118
_chemical_formula_structural       Sr2Cu2H12O10
_chemical_formula_sum              "Sr2 Cu2 H12 O10"
_cell_length_a       6.296725
_cell_length_b       5.467378000000002
_cell_length_c       7.977295878227032
_cell_angle_alpha    72.20561901156641
_cell_angle_beta     90.0
_cell_angle_gamma    90.0

_space_group_name_H-M_alt    "P 1"
_space_group_IT_number       1

loop_
  _space_group_symop_operation_xyz
  'x, y, z'

loop_
  _atom_site_type_symbol
  _atom_site_label
  _atom_site_symmetry_multiplicity
  _atom_site_fract_x
  _atom_site_fract_y
  _atom_site_fract_z
  _atom_site_occupancy
  Sr  Sr1       1.0  0.5423955869628116  0.8064303949358873  0.5553296222933568  1.0000
  Sr  Sr2       1.0  0.373463917436311  0.09217611351050436  0.3915633782162331  1.0000
  Cu  Cu1       1.0  0.8887377138016745  0.43001785525120795  0.3869641211349517  1.0000
  Cu  Cu2       1.0  0.15208411193452775  0.7017158300150186  0.8383125755935907  1.0000
  H   H1        1.0  0.9036068799905479  0.04901487298775464  0.23500282992608845  1.0000
  H   H2        1.0  0.0061781678814440966  0.9326646495610476  0.7584737134166062  1.0000
  H   H3        1.0  0.2355724325752817  0.21242867596447468  0.4407631643116474  1.0000
  H   H4        1.0  0.4366107787936926  0.027144459076225758  0.6991252675070427  1.0000
  H   H5        1.0  0.847096364130266  0.10730167734436691  0.41872017295099795  1.0000
  H   H6        1.0  0.6539812884293497  0.47031837422400713  0.4248360553756356  1.0000
  H   H7        1.0  0.35899112140759826  0.24029367230832577  0.725514518620912  1.0000
  H   H8        1.0  0.13544581363385078  0.5064295239280909  0.1983394999988377  1.0000
  H   H9        1.0  0.43156516226008534  0.20390700676944107  0.8585749305784702  1.0000
  H   H10       1.0  0.926820362219587  0.6059881742112339  0.0680028460919857  1.0000
  H   H11       1.0  0.6739431214227807  0.7183215832337737  0.40031814912799746  1.0000
  H   H12       1.0  0.4781584138981998  0.43845069454982877  0.1275016088038683  1.0000
  O   O1        1.0  0.5930413037713151  0.3944015684828628  0.8774842648999766  1.0000
  O   O2        1.0  0.046523223631083965  0.5108903888612986  0.739276674343273  1.0000
  O   O3        1.0  0.5599748583044857  0.8905453031766228  0.5824822497088462  1.0000
  O   O4        1.0  0.02736155642196536  0.7324125401792116  0.6545015736483037  1.0000
  O   O5        1.0  0.4923239165218547  0.6977583763655275  0.9593473069980973  1.0000
  O   O6        1.0  0.5203849218087271  0.10187542904168367  0.3471752926125191  1.0000
  O   O7        1.0  0.2578054756158963  0.14745658868923783  0.15327857797092292  1.0000
  O   O8        1.0  0.8763401438918663  0.43776706140488386  0.3045695893233642  1.0000
  O   O9        1.0  0.6639297026849817  0.4853216625342611  0.28661639284109697  1.0000
  O   O10       1.0  0.6777361003332771  0.32983684074133635  0.5428540016291663  1.0000
data_image119
_chemical_formula_structural       Sr2Cu2H12O10
_chemical_formula_sum              "Sr2 Cu2 H12 O10"
_cell_length_a       6.296725
_cell_length_b       5.467378000000002
_cell_length_c       7.977295878227032
_cell_angle_alpha    72.20561901156641
_cell_angle_beta     90.0
_cell_angle_gamma    90.0

_space_group_name_H-M_alt    "P 1"
_space_group_IT_number       1

loop_
  _space_group_symop_operation_xyz
  'x, y, z'

loop_
  _atom_site_type_symbol
  _atom_site_label
  _atom_site_symmetry_multiplicity
  _atom_site_fract_x
  _atom_site_fract_y
  _atom_site_fract_z
  _atom_site_occupancy
  Sr  Sr1       1.0  0.9278383495984599  0.8069142604363151  0.34066267107846215  1.0000
  Sr  Sr2       1.0  0.33417879245826043  0.40035886282566935  0.44896876643178985  1.0000
  Cu  Cu1       1.0  0.8892098368378356  0.5898317019455135  0.4327771123498678  1.0000
  Cu  Cu2       1.0  0.6558698792941868  0.922335040057078  0.5841449731960893  1.0000
  H   H1        1.0  0.23099209368228912  0.39124753058422357  0.6473242554347962  1.0000
  H   H2        1.0  0.46058160718530416  0.4507277805823833  0.3050161129795015  1.0000
  H   H3        1.0  0.8126095224870369  0.8851107321679592  0.4044961594045162  1.0000
  H   H4        1.0  0.8941069738939404  0.9196864804252982  0.7413296293525491  1.0000
  H   H5        1.0  0.06930964707862586  0.960527564631775  0.7319625911768526  1.0000
  H   H6        1.0  0.9464770290069282  0.7968368986621499  0.46513194078579545  1.0000
  H   H7        1.0  0.6158517645671964  0.4376966282725334  0.8903822833672166  1.0000
  H   H8        1.0  0.034744587959721684  0.9893485896609491  0.04687017202377319  1.0000
  H   H9        1.0  0.7655847580172122  0.9539700432214886  0.19490841403603554  1.0000
  H   H10       1.0  0.21842133067548275  0.428739065915579  0.3321976000443101  1.0000
  H   H11       1.0  0.7533154344127979  0.49728375393897295  0.3642116063274443  1.0000
  H   H12       1.0  0.09516456769779325  0.8615389941260219  0.34144873823970556  1.0000
  O   O1        1.0  0.003273572088801302  0.766525469487533  0.4412333763903007  1.0000
  O   O2        1.0  0.6134562394581735  0.6569856060668826  0.24408575193956494  1.0000
  O   O3        1.0  0.9553999055642635  0.5616425159096252  0.6281922945054248  1.0000
  O   O4        1.0  0.5503986913245171  0.11546304996591061  0.9648523889482021  1.0000
  O   O5        1.0  0.13242449634708464  0.25159698631614447  0.27779424758045934  1.0000
  O   O6        1.0  0.5049637417541817  0.2542230123654008  0.11154327052645385  1.0000
  O   O7        1.0  0.45452385232783854  0.6673418984282762  0.003363101466675289  1.0000
  O   O8        1.0  0.24726814799942076  0.6366528919897974  0.3137948615476489  1.0000
  O   O9        1.0  0.303675971867051  0.6946037485904526  0.16005761048290879  1.0000
  O   O10       1.0  0.07498071028385311  0.19495833769906312  0.6639045346528292  1.0000
data_image120
_chemical_formula_structural       Sr2Cu2H12O10
_chemical_formula_sum              "Sr2 Cu2 H12 O10"
_cell_length_a       6.296725
_cell_length_b       5.467378000000002
_cell_length_c       7.977295878227032
_cell_angle_alpha    72.20561901156641
_cell_angle_beta     90.0
_cell_angle_gamma    90.0

_space_group_name_H-M_alt    "P 1"
_space_group_IT_number       1

loop_
  _space_group_symop_operation_xyz
  'x, y, z'

loop_
  _atom_site_type_symbol
  _atom_site_label
  _atom_site_symmetry_multiplicity
  _atom_site_fract_x
  _atom_site_fract_y
  _atom_site_fract_z
  _atom_site_occupancy
  Sr  Sr1       1.0  0.538053720491007  0.6116760181612335  0.6949827465286944  1.0000
  Sr  Sr2       1.0  0.2699623114604037  0.6182808598969132  0.14650523249292746  1.0000
  Cu  Cu1       1.0  0.7686516016838141  0.8560550555121154  0.24336315446998924  1.0000
  Cu  Cu2       1.0  0.8506105688866228  0.07398280152119696  0.9343333940487355  1.0000
  H   H1        1.0  0.2784522499423474  0.47647072351537645  0.05093070224393159  1.0000
  H   H2        1.0  0.6911746005062014  0.6684929101029411  0.15916235418990254  1.0000
  H   H3        1.0  0.7703439861070365  0.6379319597035646  0.02215684950351715  1.0000
  H   H4        1.0  0.48594504687935114  0.513360952027142  0.1040437995980028  1.0000
  H   H5        1.0  0.3939839561935514  0.1788966462481767  0.39601757330819964  1.0000
  H   H6        1.0  0.2768620257265866  0.7161064948886633  0.37488076370209455  1.0000
  H   H7        1.0  0.21685132407583296  0.18263965658843517  0.9188090375391766  1.0000
  H   H8        1.0  0.3107003323966637  0.6859311843290925  0.2930840386543423  1.0000
  H   H9        1.0  0.6137321558780968  0.9508782221237198  0.8704750617034733  1.0000
  H   H10       1.0  0.8934575704624876  0.6940403314074501  0.4645282714627683  1.0000
  H   H11       1.0  0.10835180437425151  0.9076744988560677  0.20871050097048283  1.0000
  H   H12       1.0  0.7734298817813396  0.5679171541705728  0.11537253297865391  1.0000
  O   O1        1.0  0.06201982325001154  0.09046468895394355  0.159398413146846  1.0000
  O   O2        1.0  0.36581134237349033  0.8468018993735313  0.9187036203220487  1.0000
  O   O3        1.0  0.6933980816975236  0.04312854987801984  0.7215968411182985  1.0000
  O   O4        1.0  0.13696596794761717  0.13397165696369484  0.2544772590044886  1.0000
  O   O5        1.0  0.6183176151826046  0.4951289827004075  0.9027732774848118  1.0000
  O   O6        1.0  0.18526065815240145  0.9474019552581012  0.1703864298760891  1.0000
  O   O7        1.0  0.6207806573947892  0.9322263579815626  0.4862002720401506  1.0000
  O   O8        1.0  0.6569392590317875  0.5483112162910402  0.7200272905174643  1.0000
  O   O9        1.0  0.581254314747639  0.5809007654024754  0.5072527870070189  1.0000
  O   O10       1.0  0.5766361498099286  0.47967177687678486  0.9628997246036306  1.0000
data_image121
_chemical_formula_structural       Sr2Cu2H12O10
_chemical_formula_sum              "Sr2 Cu2 H12 O10"
_cell_length_a       6.296725
_cell_length_b       5.467378000000002
_cell_length_c       7.977295878227032
_cell_angle_alpha    72.20561901156641
_cell_angle_beta     90.0
_cell_angle_gamma    90.0

_space_group_name_H-M_alt    "P 1"
_space_group_IT_number       1

loop_
  _space_group_symop_operation_xyz
  'x, y, z'

loop_
  _atom_site_type_symbol
  _atom_site_label
  _atom_site_symmetry_multiplicity
  _atom_site_fract_x
  _atom_site_fract_y
  _atom_site_fract_z
  _atom_site_occupancy
  Sr  Sr1       1.0  0.09146009280811995  0.30321343831019476  0.6171018758032005  1.0000
  Sr  Sr2       1.0  0.7772662480565486  0.83717845834326  0.7996277611237019  1.0000
  Cu  Cu1       1.0  0.9681009136256762  0.8510304042138159  0.5737920823739842  1.0000
  Cu  Cu2       1.0  0.11460029100999236  0.29528692294843495  0.7398565239273012  1.0000
  H   H1        1.0  0.3372246299404651  0.2503310852916911  0.5599762634374201  1.0000
  H   H2        1.0  0.15283218305557966  0.910525570390746  0.6339089199900627  1.0000
  H   H3        1.0  0.4060205405403394  0.5265073236078024  0.2874342896975577  1.0000
  H   H4        1.0  0.0775179946795106  0.32774374075233936  0.7084334866667632  1.0000
  H   H5        1.0  0.18284978589508682  0.2676840699277818  0.6363470086362213  1.0000
  H   H6        1.0  0.5005872345063835  0.7329624146223068  0.04632021300494671  1.0000
  H   H7        1.0  0.8174170812126249  0.007145429030060768  0.10604113817680627  1.0000
  H   H8        1.0  0.13892528298310935  0.6834359416970983  0.3612684803083539  1.0000
  H   H9        1.0  0.7897498593665659  0.5351700721075758  0.9553887010551989  1.0000
  H   H10       1.0  0.2607082740869373  0.6285187014145777  0.8949222525116056  1.0000
  H   H11       1.0  0.18069079844281077  0.9568150406703353  0.3453265519347042  1.0000
  H   H12       1.0  0.815950274001807  0.18332176934927702  0.18425126373767853  1.0000
  O   O1        1.0  0.06639841503056232  0.20360106322914362  0.5062425219221041  1.0000
  O   O2        1.0  0.03310835920274258  0.7999440594576299  0.006256703985854983  1.0000
  O   O3        1.0  0.9039759573061019  0.954229361290345  0.825476867496036  1.0000
  O   O4        1.0  0.6962584829889238  0.6693490396137349  0.45184779120609164  1.0000
  O   O5        1.0  0.14540455758105963  0.2249061989132315  0.5140820157976123  1.0000
  O   O6        1.0  0.8644123236881569  0.07597683602944016  0.7971844190615229  1.0000
  O   O7        1.0  0.1677139011444524  0.02848716708831489  0.41257391616818495  1.0000
  O   O8        1.0  0.8681164112640545  0.2862591240555048  0.6805128601845354  1.0000
  O   O9        1.0  0.03652095055440441  0.7829380994371604  0.3346899084863253  1.0000
  O   O10       1.0  0.9386104533041362  0.8729310077615082  0.4063430248061195  1.0000
data_image122
_chemical_formula_structural       Sr2Cu2H12O10
_chemical_formula_sum              "Sr2 Cu2 H12 O10"
_cell_length_a       6.296725
_cell_length_b       5.467378000000002
_cell_length_c       7.977295878227032
_cell_angle_alpha    72.20561901156641
_cell_angle_beta     90.0
_cell_angle_gamma    90.0

_space_group_name_H-M_alt    "P 1"
_space_group_IT_number       1

loop_
  _space_group_symop_operation_xyz
  'x, y, z'

loop_
  _atom_site_type_symbol
  _atom_site_label
  _atom_site_symmetry_multiplicity
  _atom_site_fract_x
  _atom_site_fract_y
  _atom_site_fract_z
  _atom_site_occupancy
  Sr  Sr1       1.0  0.5864728540182114  0.1725525389192626  0.5596590969071258  1.0000
  Sr  Sr2       1.0  0.5508757258648984  0.5712825643131509  0.46860624058172107  1.0000
  Cu  Cu1       1.0  0.748387171246577  0.9499426814727485  0.8742595362709835  1.0000
  Cu  Cu2       1.0  0.3381265285424888  0.3323793897870928  0.1555099010001868  1.0000
  H   H1        1.0  0.9312133665662259  0.8022625489393249  0.42626462306361645  1.0000
  H   H2        1.0  0.9075460894964635  0.2944809652399272  0.4904735856689513  1.0000
  H   H3        1.0  0.6450815215794137  0.9108918253332376  0.86953150248155  1.0000
  H   H4        1.0  0.15925019327551126  0.8675476964563131  0.556933670588478  1.0000
  H   H5        1.0  0.159299366758205  0.45343453250825405  0.413609646493569  1.0000
  H   H6        1.0  0.10444554290734231  0.8804851090535522  0.17139322869479656  1.0000
  H   H7        1.0  0.41809630184434354  0.5637228563427925  0.8677820143057033  1.0000
  H   H8        1.0  0.8746464836876839  0.5924572985386476  0.232372855884023  1.0000
  H   H9        1.0  0.7836911901831627  0.9171638995176181  0.22345652803778648  1.0000
  H   H10       1.0  0.9010642352513969  0.3922100900672376  0.41671322053298354  1.0000
  H   H11       1.0  0.24472483934368938  0.4605330526828766  0.0004973612958565354  1.0000
  H   H12       1.0  0.6611702688969672  0.9082390274852514  0.03939243033528328  1.0000
  O   O1        1.0  0.7321738863101928  0.6325995155493729  0.215783272520639  1.0000
  O   O2        1.0  0.308734642341733  0.36037281062453985  0.4001109302043915  1.0000
  O   O3        1.0  0.015460312832146883  0.8939867801964283  0.16595534945372492  1.0000
  O   O4        1.0  0.8816665601916611  0.13674703345168382  0.2895839747507125  1.0000
  O   O5        1.0  0.7392507667536847  0.3243815968744457  0.06997256296745036  1.0000
  O   O6        1.0  0.36668725102208555  0.7674126797355711  0.6206997006665915  1.0000
  O   O7        1.0  0.9523517021443695  0.40072568133473396  0.15059863318856515  1.0000
  O   O8        1.0  0.8348024914448615  0.236881555756554  0.9536364971427247  1.0000
  O   O9        1.0  0.306113106518751  0.8040933990851045  0.32081761735025793  1.0000
  O   O10       1.0  0.7740193767240271  0.42114007275085896  0.8136558895930648  1.0000
data_image123
_chemical_formula_structural       Sr2Cu2H12O10
_chemical_formula_sum              "Sr2 Cu2 H12 O10"
_cell_length_a       6.296725
_cell_length_b       5.467378000000002
_cell_length_c       7.977295878227032
_cell_angle_alpha    72.20561901156641
_cell_angle_beta     90.0
_cell_angle_gamma    90.0

_space_group_name_H-M_alt    "P 1"
_space_group_IT_number       1

loop_
  _space_group_symop_operation_xyz
  'x, y, z'

loop_
  _atom_site_type_symbol
  _atom_site_label
  _atom_site_symmetry_multiplicity
  _atom_site_fract_x
  _atom_site_fract_y
  _atom_site_fract_z
  _atom_site_occupancy
  Sr  Sr1       1.0  0.0011637789430096745  0.5060581654543057  0.6581974027503747  1.0000
  Sr  Sr2       1.0  0.17402801281423308  0.40444311790633947  0.2762919836095534  1.0000
  Cu  Cu1       1.0  0.32133213279303163  0.7945172705221921  0.45532779139466584  1.0000
  Cu  Cu2       1.0  0.24336949666030705  0.932696976698935  0.9504640460945666  1.0000
  H   H1        1.0  0.8682077848352492  0.3119153305888176  0.09017813263926655  1.0000
  H   H2        1.0  0.6409621476195753  0.0014972267672419548  0.5257027479819953  1.0000
  H   H3        1.0  0.709618379114545  0.4963856153190136  0.7571193994954228  1.0000
  H   H4        1.0  0.7430760581046343  0.5551512679085135  0.4336993372926372  1.0000
  H   H5        1.0  0.7962955497205257  0.25690580159425735  0.5115250060334802  1.0000
  H   H6        1.0  0.007983533665537834  0.4600903205573559  0.5933030205778778  1.0000
  H   H7        1.0  0.1993063825648278  0.7045729923993349  0.41451786062680185  1.0000
  H   H8        1.0  0.15453795192297548  0.38721000496298075  0.7695815988117829  1.0000
  H   H9        1.0  0.3346035094000399  0.7161690026987344  0.5183923989534378  1.0000
  H   H10       1.0  0.5679092770442367  0.8057299923384562  0.690874031977728  1.0000
  H   H11       1.0  0.00969345704652369  0.7542007779702544  0.2548028809251264  1.0000
  H   H12       1.0  0.27307638386264443  0.16249520052224398  0.4457796420902014  1.0000
  O   O1        1.0  0.5855880808521761  0.2276257640478434  0.28977131278952584  1.0000
  O   O2        1.0  0.6313859457150102  0.5310758207924664  0.4481614821124822  1.0000
  O   O3        1.0  0.9968787904363126  0.07174635100818705  0.7902646299917251  1.0000
  O   O4        1.0  0.6588500868529081  0.9711997274425812  0.33410751330666244  1.0000
  O   O5        1.0  0.8742746040225029  0.56528126494959  0.9257016934570856  1.0000
  O   O6        1.0  0.9781029769219458  0.18447648687288165  0.7046937042032368  1.0000
  O   O7        1.0  0.6392166904406622  0.09657527529634535  0.9256971951981541  1.0000
  O   O8        1.0  0.6354106945509557  0.2858367192093283  0.7156645151553676  1.0000
  O   O9        1.0  0.8025920914660674  0.5695360780227929  0.022588050225749612  1.0000
  O   O10       1.0  0.5896827488322742  0.09915031772106886  0.00355484860483557  1.0000
data_image124
_chemical_formula_structural       Sr2Cu2H12O10
_chemical_formula_sum              "Sr2 Cu2 H12 O10"
_cell_length_a       6.296725
_cell_length_b       5.467378000000002
_cell_length_c       7.977295878227032
_cell_angle_alpha    72.20561901156641
_cell_angle_beta     90.0
_cell_angle_gamma    90.0

_space_group_name_H-M_alt    "P 1"
_space_group_IT_number       1

loop_
  _space_group_symop_operation_xyz
  'x, y, z'

loop_
  _atom_site_type_symbol
  _atom_site_label
  _atom_site_symmetry_multiplicity
  _atom_site_fract_x
  _atom_site_fract_y
  _atom_site_fract_z
  _atom_site_occupancy
  Sr  Sr1       1.0  0.08203684608452022  0.556839715980459  0.364552840241231  1.0000
  Sr  Sr2       1.0  0.12099170083820354  0.8587358477525413  0.8626877160277218  1.0000
  Cu  Cu1       1.0  0.9607876883237623  0.06441339012235403  0.6408422699896619  1.0000
  Cu  Cu2       1.0  0.9192654108628631  0.7118711967486888  0.2579406297300011  1.0000
  H   H1        1.0  0.9805576535873115  0.735785499564372  0.04818470648024231  1.0000
  H   H2        1.0  0.7359804431907833  0.14899415476247668  0.8220710628665984  1.0000
  H   H3        1.0  0.13163677768898197  0.36312703415751457  0.006900470936670899  1.0000
  H   H4        1.0  0.883275406435132  0.05196945369243622  0.9402450731722638  1.0000
  H   H5        1.0  0.9431632412597537  0.2752926042303443  0.0033361802343279123  1.0000
  H   H6        1.0  0.8834376502782106  0.5551688270643353  0.5645333873108029  1.0000
  H   H7        1.0  0.8688231497071683  0.4762046802788973  0.2705837390385568  1.0000
  H   H8        1.0  0.6083260108716786  0.9438180368160829  0.600597832351923  1.0000
  H   H9        1.0  0.7316256044432521  0.3734246796811931  0.5698915310204029  1.0000
  H   H10       1.0  0.841198792681098  0.8349059832980856  0.3281456474214792  1.0000
  H   H11       1.0  0.4948998538311571  0.5208333618938923  0.9766872593318112  1.0000
  H   H12       1.0  0.7171200811862946  0.8952894005924463  0.8520585857331753  1.0000
  O   O1        1.0  0.361452574346913  0.7837596755416598  0.986172859033104  1.0000
  O   O2        1.0  0.14638216607272625  0.14581589819863439  0.7085850168950856  1.0000
  O   O3        1.0  0.7898410230409354  0.9074400863901246  0.8011033206712455  1.0000
  O   O4        1.0  0.3455006575677544  0.0009197162580676377  0.4793055607005954  1.0000
  O   O5        1.0  0.43452728795818985  0.9063888892997056  0.43762336480722297  1.0000
  O   O6        1.0  0.5222014755709097  0.8891473105177283  0.9203669650596566  1.0000
  O   O7        1.0  0.5783041465329006  0.25056538125500083  0.6831332038418623  1.0000
  O   O8        1.0  0.3069223190541379  0.3257028132211417  0.6554004867793992  1.0000
  O   O9        1.0  0.10666940672672354  0.13019695092225447  0.4220670935465023  1.0000
  O   O10       1.0  0.5966130978777073  0.14195748150814325  0.6193042806116864  1.0000
data_image125
_chemical_formula_structural       Sr2Cu2H12O10
_chemical_formula_sum              "Sr2 Cu2 H12 O10"
_cell_length_a       6.296725
_cell_length_b       5.467378000000002
_cell_length_c       7.977295878227032
_cell_angle_alpha    72.20561901156641
_cell_angle_beta     90.0
_cell_angle_gamma    90.0

_space_group_name_H-M_alt    "P 1"
_space_group_IT_number       1

loop_
  _space_group_symop_operation_xyz
  'x, y, z'

loop_
  _atom_site_type_symbol
  _atom_site_label
  _atom_site_symmetry_multiplicity
  _atom_site_fract_x
  _atom_site_fract_y
  _atom_site_fract_z
  _atom_site_occupancy
  Sr  Sr1       1.0  0.5405100479256362  0.1587162836221978  0.9776236927136779  1.0000
  Sr  Sr2       1.0  0.8206689531798474  0.8182077376404777  0.06903851614333689  1.0000
  Cu  Cu1       1.0  0.4604829952586442  0.8747651586309075  0.22086601762566715  1.0000
  Cu  Cu2       1.0  0.5225225202739239  0.902050222735852  0.022059275535866618  1.0000
  H   H1        1.0  0.5627816482447088  0.6975870849564672  0.6827400823822245  1.0000
  H   H2        1.0  0.5810650123748928  0.6964780753478408  0.14711852930486202  1.0000
  H   H3        1.0  0.7107520609279163  0.7899934155866504  0.8171102723572403  1.0000
  H   H4        1.0  0.26805054396390915  0.7860971558839083  0.23198038595728576  1.0000
  H   H5        1.0  0.9713441068306565  0.006609641946852207  0.19079611892811954  1.0000
  H   H6        1.0  0.6176142664626241  0.9247688818722963  0.6727808807045221  1.0000
  H   H7        1.0  0.8321097900625318  0.6510431747883558  0.6887356677325442  1.0000
  H   H8        1.0  0.3481193749466911  0.7426453275838867  0.6957460256526247  1.0000
  H   H9        1.0  0.014792253728955984  0.913550311292056  0.4219554867595434  1.0000
  H   H10       1.0  0.4577436060644686  0.7907188590907026  0.46660122834146023  1.0000
  H   H11       1.0  0.4439789248863235  0.018997916020452976  0.23269642319064587  1.0000
  H   H12       1.0  0.3566852011717856  0.2662898674607277  0.7923899870365858  1.0000
  O   O1        1.0  0.8204758578212932  0.7806921985466033  0.830435824173037  1.0000
  O   O2        1.0  0.10681566735729575  0.6316123679280281  0.45822235383093357  1.0000
  O   O3        1.0  0.3084038607776165  0.5332641367276665  0.07953409617766738  1.0000
  O   O4        1.0  0.4600260374136269  0.5195163447060622  0.9872041682247072  1.0000
  O   O5        1.0  0.059302824549376965  0.13377038657199591  0.8438503966899589  1.0000
  O   O6        1.0  0.5840976487379521  0.6697728089056909  0.20747111085802317  1.0000
  O   O7        1.0  0.279843182885088  0.6786963136401027  0.3308330454674433  1.0000
  O   O8        1.0  0.4836200563586317  0.4901820361847058  0.7091777477180585  1.0000
  O   O9        1.0  0.7371915690018795  0.6820994568406604  0.8560413044178858  1.0000
  O   O10       1.0  0.9609868199331686  0.607945374562405  0.13674417627044022  1.0000
data_image126
_chemical_formula_structural       Sr2Cu2H12O10
_chemical_formula_sum              "Sr2 Cu2 H12 O10"
_cell_length_a       6.296725
_cell_length_b       5.467378000000002
_cell_length_c       7.977295878227032
_cell_angle_alpha    72.20561901156641
_cell_angle_beta     90.0
_cell_angle_gamma    90.0

_space_group_name_H-M_alt    "P 1"
_space_group_IT_number       1

loop_
  _space_group_symop_operation_xyz
  'x, y, z'

loop_
  _atom_site_type_symbol
  _atom_site_label
  _atom_site_symmetry_multiplicity
  _atom_site_fract_x
  _atom_site_fract_y
  _atom_site_fract_z
  _atom_site_occupancy
  Sr  Sr1       1.0  0.0355356284417212  0.6119519981439225  0.009220668027410284  1.0000
  Sr  Sr2       1.0  0.42907084980106447  0.5432764668948948  0.23465355910593644  1.0000
  Cu  Cu1       1.0  0.026286828448064625  0.5374148176051676  0.4950698111206293  1.0000
  Cu  Cu2       1.0  0.42160365520976484  0.576782894320786  0.7831422965973616  1.0000
  H   H1        1.0  0.5565178343094885  0.28249164402950555  0.1706750896992162  1.0000
  H   H2        1.0  0.7122340789064765  0.45743522816337645  0.8371891784481704  1.0000
  H   H3        1.0  0.2860229910875205  0.29071823228150606  0.08165368484333158  1.0000
  H   H4        1.0  0.2716166954487562  0.8667743615806103  0.7422351714922115  1.0000
  H   H5        1.0  0.1225036921678111  0.9106317018158734  0.9498905113432556  1.0000
  H   H6        1.0  0.6694798145908862  0.5416932394728065  0.5511857499368489  1.0000
  H   H7        1.0  0.39291774155572057  0.6792719159275293  0.14962170936632901  1.0000
  H   H8        1.0  0.9215481702703983  0.9427812065696344  0.40290247660595924  1.0000
  H   H9        1.0  0.8068998227827251  0.3367625798564404  0.4160323152318597  1.0000
  H   H10       1.0  0.9055544815491885  0.658825727092335  0.025766825303435326  1.0000
  H   H11       1.0  0.8642485055606812  0.18656774051487446  0.08348186628427356  1.0000
  H   H12       1.0  0.6437232554890215  0.9516489133238792  0.5496913157403469  1.0000
  O   O1        1.0  0.09706571727292612  0.9754444710270036  0.8491734788985923  1.0000
  O   O2        1.0  0.5423247683793306  0.11899347556754947  0.2859898037277162  1.0000
  O   O3        1.0  0.8129644051659852  0.7839761117356829  0.2830903099384159  1.0000
  O   O4        1.0  0.38013118668459356  0.13176979421405122  0.14223527698777616  1.0000
  O   O5        1.0  0.4926509475335479  0.19488835998345166  0.5840214567142539  1.0000
  O   O6        1.0  0.6325096553191543  0.394697705283761  0.09200743213295937  1.0000
  O   O7        1.0  0.24878028582315892  0.7073309917468578  0.8944332038227003  1.0000
  O   O8        1.0  0.8593890469928738  0.38151887129060924  0.18137254985049367  1.0000
  O   O9        1.0  0.30112539677065797  0.6467960810405202  0.22633970872266218  1.0000
  O   O10       1.0  0.6812521648244001  0.31769964029081166  0.9547011437825859  1.0000
data_image127
_chemical_formula_structural       Sr2Cu2H12O10
_chemical_formula_sum              "Sr2 Cu2 H12 O10"
_cell_length_a       6.296725
_cell_length_b       5.467378000000002
_cell_length_c       7.977295878227032
_cell_angle_alpha    72.20561901156641
_cell_angle_beta     90.0
_cell_angle_gamma    90.0

_space_group_name_H-M_alt    "P 1"
_space_group_IT_number       1

loop_
  _space_group_symop_operation_xyz
  'x, y, z'

loop_
  _atom_site_type_symbol
  _atom_site_label
  _atom_site_symmetry_multiplicity
  _atom_site_fract_x
  _atom_site_fract_y
  _atom_site_fract_z
  _atom_site_occupancy
  Sr  Sr1       1.0  0.6221528105670586  0.4432470324682072  0.6106937086442485  1.0000
  Sr  Sr2       1.0  0.5257278402532393  0.6166733853751794  0.40319105389062315  1.0000
  Cu  Cu1       1.0  0.42192510911263525  0.24777051899582148  0.30260020191781223  1.0000
  Cu  Cu2       1.0  0.11028749938122928  0.5491763870231807  0.9995220999699086  1.0000
  H   H1        1.0  0.6141568101011217  0.928039152524434  0.3106874619843438  1.0000
  H   H2        1.0  0.9195545485708863  0.923582803690806  0.9779424909502268  1.0000
  H   H3        1.0  0.4290125372353941  0.6166329151019454  0.10723522421903908  1.0000
  H   H4        1.0  0.8532255440950394  0.9049513973295689  0.42452917457558215  1.0000
  H   H5        1.0  0.41624229622539133  0.7081478801555932  0.12171153305098414  1.0000
  H   H6        1.0  0.8296304009854794  0.668928305618465  0.04846252826973796  1.0000
  H   H7        1.0  0.16380233992822468  0.017957642674446106  0.6722368092741817  1.0000
  H   H8        1.0  0.5792372577125207  0.6038578052539378  0.8344614070374519  1.0000
  H   H9        1.0  0.6527465274557471  0.9888560951803811  0.7894657519645989  1.0000
  H   H10       1.0  0.6685810713097453  0.7977165429037996  0.45562750520184636  1.0000
  H   H11       1.0  0.9340492020128295  0.3101045833900571  0.8926407693652436  1.0000
  H   H12       1.0  0.9303987533785403  0.9553700108081102  0.6151404548436403  1.0000
  O   O1        1.0  0.04969314727350138  0.37303645320935175  0.4881330248317681  1.0000
  O   O2        1.0  0.5455428836867213  0.37615353474393487  0.34760171500965953  1.0000
  O   O3        1.0  0.8184173426125199  0.20391088622272946  0.4473370040068403  1.0000
  O   O4        1.0  0.8271435461938381  0.5318994860863313  0.20377017580904067  1.0000
  O   O5        1.0  0.33542727364692837  0.19482187961693853  0.1794773715082556  1.0000
  O   O6        1.0  0.02833441155962646  0.12352850800380111  0.2547939568175934  1.0000
  O   O7        1.0  0.7031334546627477  0.013314963085576892  0.7027586289841565  1.0000
  O   O8        1.0  0.14414304960519075  0.6582185166189447  0.7073697136947885  1.0000
  O   O9        1.0  0.1591992373287212  0.0788678849930875  0.19068911828799173  1.0000
  O   O10       1.0  0.17543071904219687  0.47167984186671674  0.9298614400904626  1.0000
data_image128
_chemical_formula_structural       Sr2Cu2H12O10
_chemical_formula_sum              "Sr2 Cu2 H12 O10"
_cell_length_a       6.296725
_cell_length_b       5.467378000000002
_cell_length_c       7.977295878227032
_cell_angle_alpha    72.20561901156641
_cell_angle_beta     90.0
_cell_angle_gamma    90.0

_space_group_name_H-M_alt    "P 1"
_space_group_IT_number       1

loop_
  _space_group_symop_operation_xyz
  'x, y, z'

loop_
  _atom_site_type_symbol
  _atom_site_label
  _atom_site_symmetry_multiplicity
  _atom_site_fract_x
  _atom_site_fract_y
  _atom_site_fract_z
  _atom_site_occupancy
  Sr  Sr1       1.0  0.32805276312865317  0.3428748990409076  0.16971377847949043  1.0000
  Sr  Sr2       1.0  0.211087357291035  0.48355818924028426  0.07309122057631612  1.0000
  Cu  Cu1       1.0  0.03719672292936593  0.2508821999654174  0.25199767912272364  1.0000
  Cu  Cu2       1.0  0.8961272991728038  0.872379498090595  0.5893689207732677  1.0000
  H   H1        1.0  0.5425827750004828  0.6528813991462812  0.060485051362775266  1.0000
  H   H2        1.0  0.20778701710514724  0.7456474017817527  0.18603421282023191  1.0000
  H   H3        1.0  0.07848668628139421  0.5205523734912276  0.5964220350142568  1.0000
  H   H4        1.0  0.15434717200696468  0.10303446277976036  0.4527821554802358  1.0000
  H   H5        1.0  0.035729275550693274  0.2894163697492331  0.6201203495729715  1.0000
  H   H6        1.0  0.9333043126389384  0.6077533308416605  0.5220057861879468  1.0000
  H   H7        1.0  0.035578201757743955  0.5294370483607054  0.24703650921583176  1.0000
  H   H8        1.0  0.8795417959336191  0.7923899155575782  0.862703088670969  1.0000
  H   H9        1.0  0.6781927538104355  0.8469410319812596  0.0044480180367827415  1.0000
  H   H10       1.0  0.1613425149116665  0.0575659362366423  0.8240479887463152  1.0000
  H   H11       1.0  0.8992411543149501  0.04561828076839447  0.11306927865371108  1.0000
  H   H12       1.0  0.07388977333903313  0.27789986226707697  0.4341111369431019  1.0000
  O   O1        1.0  0.6042178250791039  0.9672914768161718  0.29554320831084624  1.0000
  O   O2        1.0  0.13802876649424434  0.20826638583093882  0.5023514886852354  1.0000
  O   O3        1.0  0.3090145045425743  0.9983738109149272  0.1604759052861482  1.0000
  O   O4        1.0  0.09296572650782764  0.45843636110657826  0.6751952623017132  1.0000
  O   O5        1.0  0.8753333167405799  0.4610227309167385  0.2279137979639927  1.0000
  O   O6        1.0  0.35577740031294525  0.1825176882557571  0.897502271051053  1.0000
  O   O7        1.0  0.4864971152273938  0.7219203845597804  0.12280613805342  1.0000
  O   O8        1.0  0.09667664955486543  0.08403982361778617  0.1304388924036175  1.0000
  O   O9        1.0  0.31492325974977575  0.4709388079936616  0.3577324312645942  1.0000
  O   O10       1.0  0.6870125823188573  0.6954679437913001  0.5962957094307058  1.0000
data_image129
_chemical_formula_structural       Sr2Cu2H12O10
_chemical_formula_sum              "Sr2 Cu2 H12 O10"
_cell_length_a       6.296725
_cell_length_b       5.467378000000002
_cell_length_c       7.977295878227032
_cell_angle_alpha    72.20561901156641
_cell_angle_beta     90.0
_cell_angle_gamma    90.0

_space_group_name_H-M_alt    "P 1"
_space_group_IT_number       1

loop_
  _space_group_symop_operation_xyz
  'x, y, z'

loop_
  _atom_site_type_symbol
  _atom_site_label
  _atom_site_symmetry_multiplicity
  _atom_site_fract_x
  _atom_site_fract_y
  _atom_site_fract_z
  _atom_site_occupancy
  Sr  Sr1       1.0  0.15485217387322336  0.4477414928842336  0.5285447559435852  1.0000
  Sr  Sr2       1.0  0.3178790889087395  0.6790814608102664  0.9146260861307383  1.0000
  Cu  Cu1       1.0  0.8722258846974  0.7494965570513159  0.04348803556058556  1.0000
  Cu  Cu2       1.0  0.8511016294360161  0.35546527267433703  0.17876821081154048  1.0000
  H   H1        1.0  0.7115031182765961  0.02493180730380118  0.7585918795084581  1.0000
  H   H2        1.0  0.09345967951230705  0.6909277813974768  0.818777450826019  1.0000
  H   H3        1.0  0.0011520307743921876  0.7195809343829751  0.7886297199875116  1.0000
  H   H4        1.0  0.4372449927031994  0.1975820567458868  0.08956930972635746  1.0000
  H   H5        1.0  0.21684856864158064  0.4398699428420514  0.8710515657439828  1.0000
  H   H6        1.0  0.831563868559897  0.8704207772389054  0.6023325440473855  1.0000
  H   H7        1.0  0.9627533161547035  0.08037220127880573  0.9986171642085537  1.0000
  H   H8        1.0  0.7160854067187756  0.38092564744874835  0.053291181568056345  1.0000
  H   H9        1.0  0.8388997367583215  0.23966034385375679  0.8079401818104088  1.0000
  H   H10       1.0  0.26035440620034933  0.9008118528290652  0.43893774785101414  1.0000
  H   H11       1.0  0.7397097136126831  0.491695299744606  0.810041772085242  1.0000
  H   H12       1.0  0.5007702200673521  0.07178156729787588  0.49934785813093185  1.0000
  O   O1        1.0  0.69198444308131  0.414011877583107  0.44646301574539393  1.0000
  O   O2        1.0  0.8873096508905292  0.3987163589335978  0.38235488487407565  1.0000
  O   O3        1.0  0.2590450693387538  0.610537355823908  0.10004828765522689  1.0000
  O   O4        1.0  0.9641307457350194  0.2521286193514243  0.7212515219580382  1.0000
  O   O5        1.0  0.6078464806778356  0.7196901862043887  0.10255631031759549  1.0000
  O   O6        1.0  0.40371322713326663  0.6607943009585142  0.3913247247110121  1.0000
  O   O7        1.0  0.206692946376279  0.08119816891849041  0.2533757062192308  1.0000
  O   O8        1.0  0.4063714436488226  0.44942074990831316  0.20741344196721911  1.0000
  O   O9        1.0  0.19943276638514362  0.6038651023409329  0.25867337523959577  1.0000
  O   O10       1.0  0.43905804317910224  0.39827653602696955  0.4718915759003721  1.0000
data_image130
_chemical_formula_structural       Sr2Cu2H12O10
_chemical_formula_sum              "Sr2 Cu2 H12 O10"
_cell_length_a       6.296725
_cell_length_b       5.467378000000002
_cell_length_c       7.977295878227032
_cell_angle_alpha    72.20561901156641
_cell_angle_beta     90.0
_cell_angle_gamma    90.0

_space_group_name_H-M_alt    "P 1"
_space_group_IT_number       1

loop_
  _space_group_symop_operation_xyz
  'x, y, z'

loop_
  _atom_site_type_symbol
  _atom_site_label
  _atom_site_symmetry_multiplicity
  _atom_site_fract_x
  _atom_site_fract_y
  _atom_site_fract_z
  _atom_site_occupancy
  Sr  Sr1       1.0  0.7327101787086576  0.712368238309864  0.5090951193997171  1.0000
  Sr  Sr2       1.0  0.3350132613668393  0.8045169077813625  0.9917585237999447  1.0000
  Cu  Cu1       1.0  0.9988263334380463  0.26218074513599277  0.11844561214093119  1.0000
  Cu  Cu2       1.0  0.9451323782559484  0.0606095208786428  0.013155002146959305  1.0000
  H   H1        1.0  0.5079565420746803  0.37886668974533677  0.3537435227772221  1.0000
  H   H2        1.0  0.03599482588469982  0.11139655276201665  0.14176685828715563  1.0000
  H   H3        1.0  0.9384103621123359  0.5827640248462558  0.2693218470085412  1.0000
  H   H4        1.0  0.6122393067926168  0.27070691622793674  0.9036566824652255  1.0000
  H   H5        1.0  0.23673597373999655  0.5030777195934206  0.903050234541297  1.0000
  H   H6        1.0  0.4989540276583284  0.00238169077783823  0.1914854352362454  1.0000
  H   H7        1.0  0.7719556395895779  0.3155394084751606  0.09875556128099561  1.0000
  H   H8        1.0  0.5006715053459629  0.6563660103129223  0.028827985748648643  1.0000
  H   H9        1.0  0.930753871332854  0.4346568609471433  0.3764814753085375  1.0000
  H   H10       1.0  0.3700669202953577  0.01557278010295704  0.3543952996842563  1.0000
  H   H11       1.0  0.6451048808521591  0.31766057945787907  0.37231564661487937  1.0000
  H   H12       1.0  0.5346550634130836  0.13482695072889328  0.017571164295077324  1.0000
  O   O1        1.0  0.8015377035480924  0.8581225911329966  0.13350153021747246  1.0000
  O   O2        1.0  0.7400647271424532  0.21974985068663955  0.8073382412549108  1.0000
  O   O3        1.0  0.9004438365809619  0.16638450589380227  0.270952140330337  1.0000
  O   O4        1.0  0.1316654086112976  0.5382552099617897  0.5025441467296332  1.0000
  O   O5        1.0  0.1883574543753639  0.5785481670172885  0.24754509827471338  1.0000
  O   O6        1.0  0.9926778532098979  0.05335322441533208  0.7585721924551763  1.0000
  O   O7        1.0  0.04862380039412528  0.20529265445657074  0.7879205835997709  1.0000
  O   O8        1.0  0.009873003262327984  0.32122510264161974  0.5468366304412484  1.0000
  O   O9        1.0  0.017200130794662982  0.8886749990633689  0.7774049459258094  1.0000
  O   O10       1.0  0.697656519128941  0.775660039158538  0.40456341434037313  1.0000
data_image131
_chemical_formula_structural       Sr2Cu2H12O10
_chemical_formula_sum              "Sr2 Cu2 H12 O10"
_cell_length_a       6.296725
_cell_length_b       5.467378000000002
_cell_length_c       7.977295878227032
_cell_angle_alpha    72.20561901156641
_cell_angle_beta     90.0
_cell_angle_gamma    90.0

_space_group_name_H-M_alt    "P 1"
_space_group_IT_number       1

loop_
  _space_group_symop_operation_xyz
  'x, y, z'

loop_
  _atom_site_type_symbol
  _atom_site_label
  _atom_site_symmetry_multiplicity
  _atom_site_fract_x
  _atom_site_fract_y
  _atom_site_fract_z
  _atom_site_occupancy
  Sr  Sr1       1.0  0.321754849050194  0.32456924926373176  0.8718464331177529  1.0000
  Sr  Sr2       1.0  0.035029216822294984  0.7130990865407512  0.8114616701204795  1.0000
  Cu  Cu1       1.0  0.5618212929693982  0.2214259966276586  0.7347191628068686  1.0000
  Cu  Cu2       1.0  0.3962775331456214  0.4998859988991171  0.07372917630709708  1.0000
  H   H1        1.0  0.5678026066161692  0.6430703804362565  0.6385853831307031  1.0000
  H   H2        1.0  0.12361180479638278  0.22363952966406941  0.677163208834827  1.0000
  H   H3        1.0  0.23776172596262768  0.5109589388594031  0.17422559019178152  1.0000
  H   H4        1.0  0.49274756386876106  0.9042484108358622  0.07025279011577368  1.0000
  H   H5        1.0  0.6274065328761935  0.11993698123842478  0.3055458931485191  1.0000
  H   H6        1.0  0.8937743287533522  0.15988012868911028  0.4774612709879875  1.0000
  H   H7        1.0  0.8445603379514068  0.5228472482413054  0.8563413087977096  1.0000
  H   H8        1.0  0.5894398925884161  0.6919252928055357  0.8901174626080319  1.0000
  H   H9        1.0  0.702449313364923  0.744707940844819  0.03536913078278303  1.0000
  H   H10       1.0  0.6960791116580367  0.6933278070064262  0.32646537479013205  1.0000
  H   H11       1.0  0.7477310600806959  0.711055844090879  0.3599497181130573  1.0000
  H   H12       1.0  0.974169472232461  0.49531771801412106  0.5354628413915634  1.0000
  O   O1        1.0  0.5355314107146114  0.4786389976507053  0.891318418784067  1.0000
  O   O2        1.0  0.15133159281685948  0.3613765835762024  0.1486147486139089  1.0000
  O   O3        1.0  0.07288503157906234  0.3558005862578284  0.3190126516856253  1.0000
  O   O4        1.0  0.38179011386819184  0.40520307575934567  0.0401822105050087  1.0000
  O   O5        1.0  0.3725011710776016  0.6677645072340965  0.24897325375059154  1.0000
  O   O6        1.0  0.9965039652306587  0.6227242760360241  0.44474583957344294  1.0000
  O   O7        1.0  0.35644731647334993  0.1873932082671672  0.6203142287922674  1.0000
  O   O8        1.0  0.9966450798383448  0.6984602063894272  0.9254808034747839  1.0000
  O   O9        1.0  0.9603752877737861  0.5168489365023561  0.6993561540730298  1.0000
  O   O10       1.0  0.1181155713275075  0.4939620550721884  0.4051235383376479  1.0000
data_image132
_chemical_formula_structural       Sr2Cu2H12O10
_chemical_formula_sum              "Sr2 Cu2 H12 O10"
_cell_length_a       6.296725
_cell_length_b       5.467378000000002
_cell_length_c       7.977295878227032
_cell_angle_alpha    72.20561901156641
_cell_angle_beta     90.0
_cell_angle_gamma    90.0

_space_group_name_H-M_alt    "P 1"
_space_group_IT_number       1

loop_
  _space_group_symop_operation_xyz
  'x, y, z'

loop_
  _atom_site_type_symbol
  _atom_site_label
  _atom_site_symmetry_multiplicity
  _atom_site_fract_x
  _atom_site_fract_y
  _atom_site_fract_z
  _atom_site_occupancy
  Sr  Sr1       1.0  0.8233306971378624  0.7296139969839714  0.7685721598681994  1.0000
  Sr  Sr2       1.0  0.7547756348212715  0.13002142077311873  0.3854908088396769  1.0000
  Cu  Cu1       1.0  0.7655390474246815  0.22528216242790222  0.9689725637435913  1.0000
  Cu  Cu2       1.0  0.9110442353412509  0.2532697357237339  0.9454261863138527  1.0000
  H   H1        1.0  0.5046835551038384  0.25728317257016897  0.6621131078572944  1.0000
  H   H2        1.0  0.9793044237885624  0.2359572199638933  0.9290131074376404  1.0000
  H   H3        1.0  0.06424284144304693  0.07588004879653454  0.03658063430339098  1.0000
  H   H4        1.0  0.05639338679611683  0.8145786821842194  0.03508920036256313  1.0000
  H   H5        1.0  0.809581734589301  0.38203243212774396  0.7630533089395612  1.0000
  H   H6        1.0  0.1971707744523883  0.5558373900130391  0.22544388752430677  1.0000
  H   H7        1.0  0.5733719295822084  0.16661916859447956  0.9811861829366535  1.0000
  H   H8        1.0  0.9551912966999225  0.7073149184579961  0.650383256492205  1.0000
  H   H9        1.0  0.32342388574033976  0.10616236977512017  0.806775146164  1.0000
  H   H10       1.0  0.19419203978031874  0.8885033753467724  0.7379345125518739  1.0000
  H   H11       1.0  0.93408204842126  0.7508819019421935  0.5693758191773668  1.0000
  H   H12       1.0  0.46655947295948863  0.0980612663552165  0.8934450708329678  1.0000
  O   O1        1.0  0.03506492162705399  0.91844776502694  0.8757349218940362  1.0000
  O   O2        1.0  0.21239219699054956  0.2908510146662593  0.5162726242560893  1.0000
  O   O3        1.0  0.5374814916867763  0.06916360117611475  0.33342010574415326  1.0000
  O   O4        1.0  0.8307900431100279  0.4672681735246442  0.1611076481640339  1.0000
  O   O5        1.0  0.19701866270042956  0.6557196942158043  0.12352447255398147  1.0000
  O   O6        1.0  0.9537543542683125  0.5459176194854081  0.45784309844020754  1.0000
  O   O7        1.0  0.7178209680714644  0.4554900729563087  0.3694954200545908  1.0000
  O   O8        1.0  0.26609718092367984  0.7865662956610322  0.6266101177316159  1.0000
  O   O9        1.0  0.3525147706204734  0.5859947566932533  0.21742324228398502  1.0000
  O   O10       1.0  0.8356380469631404  0.6771971341222525  0.7899796453421004  1.0000
data_image133
_chemical_formula_structural       Sr2Cu2H12O10
_chemical_formula_sum              "Sr2 Cu2 H12 O10"
_cell_length_a       6.296725
_cell_length_b       5.467378000000002
_cell_length_c       7.977295878227032
_cell_angle_alpha    72.20561901156641
_cell_angle_beta     90.0
_cell_angle_gamma    90.0

_space_group_name_H-M_alt    "P 1"
_space_group_IT_number       1

loop_
  _space_group_symop_operation_xyz
  'x, y, z'

loop_
  _atom_site_type_symbol
  _atom_site_label
  _atom_site_symmetry_multiplicity
  _atom_site_fract_x
  _atom_site_fract_y
  _atom_site_fract_z
  _atom_site_occupancy
  Sr  Sr1       1.0  0.9997145993402228  0.3865037898067385  0.8670650066342205  1.0000
  Sr  Sr2       1.0  0.21161477280656982  0.5045964124146849  0.7514993530312495  1.0000
  Cu  Cu1       1.0  0.5229852891061455  0.3236583499237895  0.2753149673808366  1.0000
  Cu  Cu2       1.0  0.1788601791486144  0.42020770837552845  0.6837150261271745  1.0000
  H   H1        1.0  0.27210844517685473  0.652744124410674  0.37025925202760845  1.0000
  H   H2        1.0  0.25427922746166587  0.5313334512757137  0.216451623942703  1.0000
  H   H3        1.0  0.35994013492017984  0.04440743289887905  0.20425434317439795  1.0000
  H   H4        1.0  0.7262021880596876  0.5695657413452864  0.6289749220013618  1.0000
  H   H5        1.0  0.7818350223824382  0.045626608189195395  0.24250545701943338  1.0000
  H   H6        1.0  0.2601977817248553  0.5887570837512612  0.8844034639187157  1.0000
  H   H7        1.0  0.6094168594572693  0.3928982559591532  0.7100080475211143  1.0000
  H   H8        1.0  0.16615103313233703  0.10013461579364957  0.7077364099677652  1.0000
  H   H9        1.0  0.43449245975352824  0.25458852853626013  0.15806531347334385  1.0000
  H   H10       1.0  0.511776169296354  0.054361609276384115  0.5769467460922897  1.0000
  H   H11       1.0  0.643945215299027  0.4611061029136181  0.7895646099932492  1.0000
  H   H12       1.0  0.22631421545520425  0.6222800938412547  0.532049871981144  1.0000
  O   O1        1.0  0.38166280448785983  0.0773673813091591  0.4263808192918077  1.0000
  O   O2        1.0  0.3197151222266257  0.036768543999642134  0.8629865532275289  1.0000
  O   O3        1.0  0.7588350949808955  0.6398860319168307  0.5133219825802371  1.0000
  O   O4        1.0  0.8343171626329422  0.19123856993974186  0.4949160171672702  1.0000
  O   O5        1.0  0.3517139066243544  0.6472447116393596  0.12768264733313117  1.0000
  O   O6        1.0  0.7946208104258403  0.9889946104958653  0.40975111594889313  1.0000
  O   O7        1.0  0.6897492371499538  0.10565259447321296  0.36440617733751424  1.0000
  O   O8        1.0  0.6036916514858603  0.849238277412951  0.6758277998305857  1.0000
  O   O9        1.0  0.2536407084808161  0.31681265943916515  0.22438710724236444  1.0000
  O   O10       1.0  0.45006653072778136  0.9845944042317569  0.553407252766192  1.0000
data_image134
_chemical_formula_structural       Sr2Cu2H12O10
_chemical_formula_sum              "Sr2 Cu2 H12 O10"
_cell_length_a       6.296725
_cell_length_b       5.467378000000002
_cell_length_c       7.977295878227032
_cell_angle_alpha    72.20561901156641
_cell_angle_beta     90.0
_cell_angle_gamma    90.0

_space_group_name_H-M_alt    "P 1"
_space_group_IT_number       1

loop_
  _space_group_symop_operation_xyz
  'x, y, z'

loop_
  _atom_site_type_symbol
  _atom_site_label
  _atom_site_symmetry_multiplicity
  _atom_site_fract_x
  _atom_site_fract_y
  _atom_site_fract_z
  _atom_site_occupancy
  Sr  Sr1       1.0  0.9641358552034944  0.6471026081126183  0.43386674561770633  1.0000
  Sr  Sr2       1.0  0.658172436800669  0.0916380356065929  0.253637736197561  1.0000
  Cu  Cu1       1.0  0.629878006700892  0.6743721873499453  0.8667382609564811  1.0000
  Cu  Cu2       1.0  0.04546348308213055  0.9033793527632952  0.8258001294452697  1.0000
  H   H1        1.0  0.15804884186945856  0.6421689020935446  0.3785606708843261  1.0000
  H   H2        1.0  0.24724533804692328  0.09612395684234798  0.18651154777035117  1.0000
  H   H3        1.0  0.6736322613433003  0.8386105764657259  0.42700693057850003  1.0000
  H   H4        1.0  0.7013169545680285  0.202939135953784  0.7813332648947835  1.0000
  H   H5        1.0  0.629002089612186  0.38049790309742093  0.5194302845047787  1.0000
  H   H6        1.0  0.23171005421318114  0.129468129016459  0.2100715241394937  1.0000
  H   H7        1.0  0.9374584727920592  0.4955863729119301  0.19603786198422313  1.0000
  H   H8        1.0  0.3973383600823581  0.24444484047126025  0.7675722967833281  1.0000
  H   H9        1.0  0.8521769815124571  0.40987836034037173  0.21191230276599526  1.0000
  H   H10       1.0  0.5580824916251004  0.9237097683362663  0.7586343945004046  1.0000
  H   H11       1.0  0.1316868236172013  0.7957019787281752  0.19353733118623495  1.0000
  H   H12       1.0  0.37063733162358403  0.8831714503467083  0.4688409771770239  1.0000
  O   O1        1.0  0.030196148552931845  0.4963924626354128  0.671705893240869  1.0000
  O   O2        1.0  0.028985105454921722  0.5498074688948691  0.8118114485405385  1.0000
  O   O3        1.0  0.04431634326465428  0.8217930633982178  0.7121283001033589  1.0000
  O   O4        1.0  0.11220409045927227  0.4791960121074226  0.2202253774739802  1.0000
  O   O5        1.0  0.6220289149787277  0.8280748222023249  0.8206839306512848  1.0000
  O   O6        1.0  0.958074824186042  0.5466422121971846  0.8700849759625271  1.0000
  O   O7        1.0  0.8010555614600889  0.7929283427074552  0.7010337925530621  1.0000
  O   O8        1.0  0.27637407756992616  0.9958270929055288  0.4603046990232542  1.0000
  O   O9        1.0  0.7118472744332394  0.32258385230670683  0.3721056798094651  1.0000
  O   O10       1.0  0.6229360225843266  0.13960656453855336  0.056171161006204784  1.0000
data_image135
_chemical_formula_structural       Sr2Cu2H12O10
_chemical_formula_sum              "Sr2 Cu2 H12 O10"
_cell_length_a       6.296725
_cell_length_b       5.467378000000002
_cell_length_c       7.977295878227032
_cell_angle_alpha    72.20561901156641
_cell_angle_beta     90.0
_cell_angle_gamma    90.0

_space_group_name_H-M_alt    "P 1"
_space_group_IT_number       1

loop_
  _space_group_symop_operation_xyz
  'x, y, z'

loop_
  _atom_site_type_symbol
  _atom_site_label
  _atom_site_symmetry_multiplicity
  _atom_site_fract_x
  _atom_site_fract_y
  _atom_site_fract_z
  _atom_site_occupancy
  Sr  Sr1       1.0  0.11035207216627896  0.0028094316367059946  0.6644379250355996  1.0000
  Sr  Sr2       1.0  0.34588979196269065  0.5600732928141952  0.8291482427739538  1.0000
  Cu  Cu1       1.0  0.3458224581554532  0.8429967041593045  0.5317431380972266  1.0000
  Cu  Cu2       1.0  0.9175874337088317  0.9046943979337811  0.7204195356462151  1.0000
  H   H1        1.0  0.3710372168570757  0.9795239823870361  0.010395482182502747  1.0000
  H   H2        1.0  0.30825137509964406  0.06385038868756965  0.49575801379978657  1.0000
  H   H3        1.0  0.8457581559196115  0.6105453949421644  0.47666491381824017  1.0000
  H   H4        1.0  0.6496549900621176  0.1719991210848093  0.09861014271155  1.0000
  H   H5        1.0  0.3817543364712037  0.0005443990230560303  0.3517893386306241  1.0000
  H   H6        1.0  0.17537836101837456  0.9898499064147472  0.009509152732789516  1.0000
  H   H7        1.0  0.20041632850188762  0.04436271823942661  0.49425654753576964  1.0000
  H   H8        1.0  0.4463436214136891  0.45292790498933755  0.3819951331242919  1.0000
  H   H9        1.0  0.9007004632148892  0.9240493874531239  0.39480599551461637  1.0000
  H   H10       1.0  0.9947573533281684  0.3136346647515893  0.7764436267316341  1.0000
  H   H11       1.0  0.9638688631239347  0.2675354750826955  0.15244000870734453  1.0000
  H   H12       1.0  0.6549699306488037  0.831697428599  0.5818689409643412  1.0000
  O   O1        1.0  0.13727234076941386  0.5981868673843564  0.21949647285509855  1.0000
  O   O2        1.0  0.4669994721189141  0.08565049711614847  0.3098584196995944  1.0000
  O   O3        1.0  0.5796980173327029  0.7232068021548912  0.4344790388131514  1.0000
  O   O4        1.0  0.5906739037018269  0.44021257292479277  0.3114110210444778  1.0000
  O   O5        1.0  0.13547957048285753  0.10518139379564673  0.8104656599462032  1.0000
  O   O6        1.0  0.3520355260698125  0.9349374487064779  0.479556578444317  1.0000
  O   O7        1.0  0.9685794580145739  0.10446196189150214  0.15222453131354996  1.0000
  O   O8        1.0  0.40365247178124264  0.9606388601241633  0.23268711485434324  1.0000
  O   O9        1.0  0.4585711560866912  0.4333273403462954  0.30285197275225073  1.0000
  O   O10       1.0  0.21683139889501035  0.7932907231152058  0.7282000055420212  1.0000
data_image136
_chemical_formula_structural       Sr2Cu2H12O10
_chemical_formula_sum              "Sr2 Cu2 H12 O10"
_cell_length_a       6.296725
_cell_length_b       5.467378000000002
_cell_length_c       7.977295878227032
_cell_angle_alpha    72.20561901156641
_cell_angle_beta     90.0
_cell_angle_gamma    90.0

_space_group_name_H-M_alt    "P 1"
_space_group_IT_number       1

loop_
  _space_group_symop_operation_xyz
  'x, y, z'

loop_
  _atom_site_type_symbol
  _atom_site_label
  _atom_site_symmetry_multiplicity
  _atom_site_fract_x
  _atom_site_fract_y
  _atom_site_fract_z
  _atom_site_occupancy
  Sr  Sr1       1.0  0.5827618520706892  0.5856592508498579  0.12272794346790761  1.0000
  Sr  Sr2       1.0  0.5663500010123244  0.9649936312343925  0.36314046615734696  1.0000
  Cu  Cu1       1.0  0.5714574219309725  0.7833160446025431  0.9700726553564891  1.0000
  Cu  Cu2       1.0  0.6362535005901009  0.8583160834386945  0.5367342389654368  1.0000
  H   H1        1.0  0.1004719662014395  0.2729525592876598  0.9075457537546754  1.0000
  H   H2        1.0  0.7719382566865534  0.7849078983417712  0.20855639223009348  1.0000
  H   H3        1.0  0.9831853965297341  0.39858629927039146  0.7686784528195858  1.0000
  H   H4        1.0  0.17721905373036861  0.3524558488279581  0.1829536692239344  1.0000
  H   H5        1.0  0.6156384838977829  0.48695320822298527  0.7828992232680321  1.0000
  H   H6        1.0  0.17652965895831585  0.8795815464109182  0.35057641938328743  1.0000
  H   H7        1.0  0.16655266232555732  0.02686643786728382  0.47512424539308995  1.0000
  H   H8        1.0  0.812302986625582  0.8213243902719114  0.8445688915671781  1.0000
  H   H9        1.0  0.4731135037727654  0.47160122147761285  0.24012496881186962  1.0000
  H   H10       1.0  0.45857352390885353  0.8693494405597448  0.8217184548266232  1.0000
  H   H11       1.0  0.23661994317080826  0.8958295602351427  0.9205655433470383  1.0000
  H   H12       1.0  0.46276557072997093  0.2142910212278366  0.21216192469000816  1.0000
  O   O1        1.0  0.8590306421974674  0.2978398628765717  0.2937355436151847  1.0000
  O   O2        1.0  0.4335787338204682  0.09114363929256797  0.0453065091278404  1.0000
  O   O3        1.0  0.23277031094767153  0.7290563595597632  0.512917706859298  1.0000
  O   O4        1.0  0.3747644785325974  0.08548543878714554  0.11132071889005601  1.0000
  O   O5        1.0  0.22504140343517065  0.7800571783445776  0.3363746868999442  1.0000
  O   O6        1.0  0.9624547875719145  0.3875571312382817  0.9709656207123771  1.0000
  O   O7        1.0  0.9956465273862705  0.552393308840692  0.6812361145639443  1.0000
  O   O8        1.0  0.4991330802295124  0.7920355193782598  0.12183979584369808  1.0000
  O   O9        1.0  0.2512598932153196  0.42453005476272665  0.44085974496556446  1.0000
  O   O10       1.0  0.06236680981237441  0.5990893898997456  0.8372328733094037  1.0000
data_image137
_chemical_formula_structural       Sr2Cu2H12O10
_chemical_formula_sum              "Sr2 Cu2 H12 O10"
_cell_length_a       6.296725
_cell_length_b       5.467378000000002
_cell_length_c       7.977295878227032
_cell_angle_alpha    72.20561901156641
_cell_angle_beta     90.0
_cell_angle_gamma    90.0

_space_group_name_H-M_alt    "P 1"
_space_group_IT_number       1

loop_
  _space_group_symop_operation_xyz
  'x, y, z'

loop_
  _atom_site_type_symbol
  _atom_site_label
  _atom_site_symmetry_multiplicity
  _atom_site_fract_x
  _atom_site_fract_y
  _atom_site_fract_z
  _atom_site_occupancy
  Sr  Sr1       1.0  0.2773251975886524  0.7262953133322299  0.5044382103369571  1.0000
  Sr  Sr2       1.0  0.17933982447721064  0.34625807451084256  0.08154895988991484  1.0000
  Cu  Cu1       1.0  0.4711377965286374  0.9122953610494733  0.9569625403964892  1.0000
  Cu  Cu2       1.0  0.10296084475703537  0.8812268972396851  0.9716042010113597  1.0000
  H   H1        1.0  0.14870952093042433  0.35976302751805633  0.5043988176621497  1.0000
  H   H2        1.0  0.13496105163358152  0.7175063120666891  0.6781556881032884  1.0000
  H   H3        1.0  0.9574337247759104  0.7173629738390446  0.7605853383429348  1.0000
  H   H4        1.0  0.7668184116482735  0.326872032135725  0.028324002400040627  1.0000
  H   H5        1.0  0.6664463831693865  0.9493906497955322  0.43671995331533253  1.0000
  H   H6        1.0  0.13327163876965642  0.5921607734635472  0.9956222958862782  1.0000
  H   H7        1.0  0.9218542375601828  0.3628890309482813  0.22753547155298293  1.0000
  H   H8        1.0  0.33932146738516167  0.8779791356355418  0.7018898252863437  1.0000
  H   H9        1.0  0.6491222810000181  0.10629642801359296  0.7561313149053603  1.0000
  H   H10       1.0  0.0751022957265377  0.9921305649913847  0.5308318743482232  1.0000
  H   H11       1.0  0.09222936356673017  0.590041576884687  0.7538291446398944  1.0000
  H   H12       1.0  0.26448941649869084  0.16646435018628836  0.7803198900073767  1.0000
  O   O1        1.0  0.02258407074259594  0.14771735500835348  0.33937394118402153  1.0000
  O   O2        1.0  0.5159312169998884  0.49306147592142224  0.15067216358147562  1.0000
  O   O3        1.0  0.7796174297109246  0.741813400760293  0.05853614734951407  1.0000
  O   O4        1.0  0.23166292230598629  0.8584278385387734  0.3341837702319026  1.0000
  O   O5        1.0  0.8686569610144943  0.5310014385031536  0.14312522418913431  1.0000
  O   O6        1.0  0.14177121524699032  0.39225331181660295  0.41086382616776973  1.0000
  O   O7        1.0  0.803141487762332  0.9434688051696867  0.42159545428148704  1.0000
  O   O8        1.0  0.16510144519270398  0.8205270111793652  0.7566835732432082  1.0000
  O   O9        1.0  0.7609132835132186  0.9336082960944623  0.06623679306358099  1.0000
  O   O10       1.0  0.14436712942551821  0.009628687286749482  0.45268502813996747  1.0000
data_image138
_chemical_formula_structural       Sr2Cu2H12O10
_chemical_formula_sum              "Sr2 Cu2 H12 O10"
_cell_length_a       6.296725
_cell_length_b       5.467378000000002
_cell_length_c       7.977295878227032
_cell_angle_alpha    72.20561901156641
_cell_angle_beta     90.0
_cell_angle_gamma    90.0

_space_group_name_H-M_alt    "P 1"
_space_group_IT_number       1

loop_
  _space_group_symop_operation_xyz
  'x, y, z'

loop_
  _atom_site_type_symbol
  _atom_site_label
  _atom_site_symmetry_multiplicity
  _atom_site_fract_x
  _atom_site_fract_y
  _atom_site_fract_z
  _atom_site_occupancy
  Sr  Sr1       1.0  0.9294047030853108  0.9358046140987426  0.9017021027393639  1.0000
  Sr  Sr2       1.0  0.18949512150720693  0.32939550117589533  0.8954139792767819  1.0000
  Cu  Cu1       1.0  0.4084504107013345  0.2792634086217731  0.9423275928129442  1.0000
  Cu  Cu2       1.0  0.8105721359606832  0.5800739573314786  0.021770559018477798  1.0000
  H   H1        1.0  0.9916546368040144  0.5422768343705684  0.49524241290055215  1.0000
  H   H2        1.0  0.6574203304480761  0.11586387478746474  0.9532051342539489  1.0000
  H   H3        1.0  0.7539209416136146  0.22759654372930527  0.7601506439968944  1.0000
  H   H4        1.0  0.5923616290092468  0.2319921962916851  0.6337279616855085  1.0000
  H   H5        1.0  0.25636041146935895  0.7988448631949723  0.5344384696800262  1.0000
  H   H6        1.0  0.11052684229798615  0.5540029369294643  0.8036916009150445  1.0000
  H   H7        1.0  0.9398572263307869  0.5854366142302752  0.5209229469764978  1.0000
  H   H8        1.0  0.6253992963465862  0.5001326203637291  0.0517263108631596  1.0000
  H   H9        1.0  0.16035263787489384  0.3641546471044421  0.7672262939158827  1.0000
  H   H10       1.0  0.9807312386110425  0.5531086595728993  0.7972656432539225  1.0000
  H   H11       1.0  0.21062659297604114  0.09217282384634018  0.3128239423967898  1.0000
  H   H12       1.0  0.618420135229826  0.7908242931589484  0.5516605637967587  1.0000
  O   O1        1.0  0.3999313423410058  0.911552223158651  0.36524353735148907  1.0000
  O   O2        1.0  0.9905682993121445  0.07001347141340375  0.36675693350844085  1.0000
  O   O3        1.0  0.07560792099684477  0.5309900231077336  0.017403983045369387  1.0000
  O   O4        1.0  0.23164073517546058  0.0023563786526210606  0.8796003290917724  1.0000
  O   O5        1.0  0.31674930558074266  0.4367298318538815  0.08463280598516576  1.0000
  O   O6        1.0  0.9729605200700462  0.15634326916188002  0.09111680160276592  1.0000
  O   O7        1.0  0.19256210711319  0.579615605995059  0.4823393214464886  1.0000
  O   O8        1.0  0.8652023787726648  0.061403870466165245  0.6185924762394279  1.0000
  O   O9        1.0  0.006577507221663836  0.7506370331975631  0.806603721153806  1.0000
  O   O10       1.0  0.8280460091773421  0.9086502108257264  0.7810941983480006  1.0000
data_image139
_chemical_formula_structural       Sr2Cu2H12O10
_chemical_formula_sum              "Sr2 Cu2 H12 O10"
_cell_length_a       6.296725
_cell_length_b       5.467378000000002
_cell_length_c       7.977295878227032
_cell_angle_alpha    72.20561901156641
_cell_angle_beta     90.0
_cell_angle_gamma    90.0

_space_group_name_H-M_alt    "P 1"
_space_group_IT_number       1

loop_
  _space_group_symop_operation_xyz
  'x, y, z'

loop_
  _atom_site_type_symbol
  _atom_site_label
  _atom_site_symmetry_multiplicity
  _atom_site_fract_x
  _atom_site_fract_y
  _atom_site_fract_z
  _atom_site_occupancy
  Sr  Sr1       1.0  0.08541685796808451  0.593093991279602  0.4963816824601963  1.0000
  Sr  Sr2       1.0  0.14435459824744612  0.45611869008280337  0.7121777317661326  1.0000
  Cu  Cu1       1.0  0.06018611550098285  0.31588339409790933  0.19781970157055184  1.0000
  Cu  Cu2       1.0  0.0033779414370656013  0.2579796127974987  0.07761074532754719  1.0000
  H   H1        1.0  0.8145791639108211  0.17292486364021897  0.2910097052808851  1.0000
  H   H2        1.0  0.6695204835850745  0.9925343966460787  0.8774139890447259  1.0000
  H   H3        1.0  0.7224040990695357  0.6857045218348503  0.1702129589393735  1.0000
  H   H4        1.0  0.5151792299002409  0.7315814476460218  0.43390919687226415  1.0000
  H   H5        1.0  0.5571378350723535  0.5196929867379367  0.49522491940297186  1.0000
  H   H6        1.0  0.763308642199263  0.15784800332039595  0.6807381170801818  1.0000
  H   H7        1.0  0.30708263377891853  0.14359567500650883  0.40640234434977174  1.0000
  H   H8        1.0  0.5668278108933009  0.419764985475922  0.6155019219731912  1.0000
  H   H9        1.0  0.07619309495203197  0.7624283952172846  0.4525424656458199  1.0000
  H   H10       1.0  0.3231115690432489  0.6309319483116269  0.4996858472004533  1.0000
  H   H11       1.0  0.5522222720319405  0.39819002244621515  0.8944711830699816  1.0000
  H   H12       1.0  0.6407863856293261  0.8060887129977345  0.7710432168096304  1.0000
  O   O1        1.0  0.9606563344714232  0.6091819934954401  0.5065391999669373  1.0000
  O   O2        1.0  0.4800497288815677  0.9615696901455522  0.4932168733794242  1.0000
  O   O3        1.0  0.9136725119315088  0.10587407584534958  0.7585605250205845  1.0000
  O   O4        1.0  0.7604408774059266  0.18140644405502826  0.7100769726093858  1.0000
  O   O5        1.0  0.4884961366187781  0.6504696242045611  0.07201767695369199  1.0000
  O   O6        1.0  0.15147135499864817  0.8048619953915477  0.542301329318434  1.0000
  O   O7        1.0  0.81610008579446  0.919371979078278  0.6481891038783942  1.0000
  O   O8        1.0  0.035079789115116  0.05693583097308874  0.44944919063709676  1.0000
  O   O9        1.0  0.8479832511220593  0.29094388071098365  0.1053655153082218  1.0000
  O   O10       1.0  0.20670841808896512  0.48825621022842824  0.7631998684955761  1.0000
data_image140
_chemical_formula_structural       Sr2Cu2H12O10
_chemical_formula_sum              "Sr2 Cu2 H12 O10"
_cell_length_a       6.296725
_cell_length_b       5.467378000000002
_cell_length_c       7.977295878227032
_cell_angle_alpha    72.20561901156641
_cell_angle_beta     90.0
_cell_angle_gamma    90.0

_space_group_name_H-M_alt    "P 1"
_space_group_IT_number       1

loop_
  _space_group_symop_operation_xyz
  'x, y, z'

loop_
  _atom_site_type_symbol
  _atom_site_label
  _atom_site_symmetry_multiplicity
  _atom_site_fract_x
  _atom_site_fract_y
  _atom_site_fract_z
  _atom_site_occupancy
  Sr  Sr1       1.0  0.7913811465259641  0.5608516172505915  0.31772160273976624  1.0000
  Sr  Sr2       1.0  0.21661754447268322  0.3431744943372905  0.43709748549736105  1.0000
  Cu  Cu1       1.0  0.8839721094700508  0.8603107414674014  0.7170082168304361  1.0000
  Cu  Cu2       1.0  0.6599664902314544  0.5977390767075121  0.8693950404413044  1.0000
  H   H1        1.0  0.5737632159143686  0.4966514129191637  0.15689872798975557  1.0000
  H   H2        1.0  0.15633497736416757  0.3861061696661636  0.8928427393548191  1.0000
  H   H3        1.0  0.5328293396160007  0.2590931933373213  0.07439381815493107  1.0000
  H   H4        1.0  0.933779563754797  0.7042699120938778  0.3294808859936893  1.0000
  H   H5        1.0  0.25557531719096005  0.603671507909894  0.5348340269410983  1.0000
  H   H6        1.0  0.6459341035224497  0.400476673617959  0.5606736461631954  1.0000
  H   H7        1.0  0.15163018315797672  0.8331789430230856  0.24960757023654878  1.0000
  H   H8        1.0  0.15320999157847837  0.33023338770726696  0.06389562773983926  1.0000
  H   H9        1.0  0.6040424591628835  0.34868535259738564  0.365047566825524  1.0000
  H   H10       1.0  0.5617628558538854  0.7368766185827553  0.5913545172661543  1.0000
  H   H11       1.0  0.34185922640608624  0.9573536412790418  0.9049722757190466  1.0000
  H   H12       1.0  0.38588188914582133  0.5575397284701467  0.964668532833457  1.0000
  O   O1        1.0  0.5166903249919415  0.6555924028216396  0.9815937058301643  1.0000
  O   O2        1.0  0.4383779219351709  0.30097031267359853  0.1527291568927467  1.0000
  O   O3        1.0  0.3158052258659154  0.3843198278336786  0.08657146350014955  1.0000
  O   O4        1.0  0.6845267373137176  0.05110795586369932  0.8895472725853324  1.0000
  O   O5        1.0  0.8507922375574708  0.7810149261495098  0.6255162191664567  1.0000
  O   O6        1.0  0.9414140414446592  0.10166622698307037  0.3914774125441909  1.0000
  O   O7        1.0  0.6894971049041487  0.27702765190042555  0.5433170740216156  1.0000
  O   O8        1.0  0.7916689055273309  0.060786892427131534  0.597026756266132  1.0000
  O   O9        1.0  0.3939992100422387  0.8836911088728812  0.20019678153039422  1.0000
  O   O10       1.0  0.7665393109200522  0.4326069208327681  0.7479076967574656  1.0000
data_image141
_chemical_formula_structural       Sr2Cu2H12O10
_chemical_formula_sum              "Sr2 Cu2 H12 O10"
_cell_length_a       6.296725
_cell_length_b       5.467378000000002
_cell_length_c       7.977295878227032
_cell_angle_alpha    72.20561901156641
_cell_angle_beta     90.0
_cell_angle_gamma    90.0

_space_group_name_H-M_alt    "P 1"
_space_group_IT_number       1

loop_
  _space_group_symop_operation_xyz
  'x, y, z'

loop_
  _atom_site_type_symbol
  _atom_site_label
  _atom_site_symmetry_multiplicity
  _atom_site_fract_x
  _atom_site_fract_y
  _atom_site_fract_z
  _atom_site_occupancy
  Sr  Sr1       1.0  0.5506371068768203  0.7977615888230503  0.45505319169024006  1.0000
  Sr  Sr2       1.0  0.8525879712105962  0.7524520992301404  0.4654943377536256  1.0000
  Cu  Cu1       1.0  0.8257078229216859  0.5792800807394087  0.1988636456662789  1.0000
  Cu  Cu2       1.0  0.34022318199276924  0.865924368146807  0.4522561253979802  1.0000
  H   H1        1.0  0.2156285096425563  0.22688671702053398  0.8479907632572576  1.0000
  H   H2        1.0  0.5904594485182315  0.7246115802554414  0.7012655115686357  1.0000
  H   H3        1.0  0.4402709947898984  0.5095371250063181  0.4302137759514153  1.0000
  H   H4        1.0  0.0013371240347623825  0.8539343066513538  0.23530313791707158  1.0000
  H   H5        1.0  0.683882923796773  0.23958750953897834  0.8980122475477401  1.0000
  H   H6        1.0  0.7094423703383654  0.582314383238554  0.03647263254970312  1.0000
  H   H7        1.0  0.32981014176039025  0.3659883178770542  0.8951460750540718  1.0000
  H   H8        1.0  0.8763434204738587  0.19473854076932184  0.7616208269027993  1.0000
  H   H9        1.0  0.5029782073106617  0.5437474800273776  0.0657587512396276  1.0000
  H   H10       1.0  0.2138060941360891  0.866221628151834  0.5928565731737763  1.0000
  H   H11       1.0  0.624856825103052  0.15627157967537642  0.19028683856595308  1.0000
  H   H12       1.0  0.31457915995270014  0.6138787167146802  0.5730256754904985  1.0000
  O   O1        1.0  0.6224000281654298  0.011813811055617407  0.940516313072294  1.0000
  O   O2        1.0  0.4095211597159505  0.015735651832073927  0.8337773021776229  1.0000
  O   O3        1.0  0.6924715475179255  0.832268027937971  0.10075414320454001  1.0000
  O   O4        1.0  0.5530167736578733  0.17248398906667717  0.247021158458665  1.0000
  O   O5        1.0  0.19408363348338753  0.009902848163619637  0.6753518801851897  1.0000
  O   O6        1.0  0.4835874806740321  0.7840506406500936  0.11122431035619229  1.0000
  O   O7        1.0  0.5877686671447009  0.48521001706831157  0.6987186986589222  1.0000
  O   O8        1.0  0.6553796429943759  0.17885550926439464  0.7919785931007937  1.0000
  O   O9        1.0  0.6109781815248425  0.10060756400343962  0.971216901059961  1.0000
  O   O10       1.0  0.7713390757562593  0.7374966845382005  0.571710245392751  1.0000
data_image142
_chemical_formula_structural       Sr2Cu2H12O10
_chemical_formula_sum              "Sr2 Cu2 H12 O10"
_cell_length_a       6.296725
_cell_length_b       5.467378000000002
_cell_length_c       7.977295878227032
_cell_angle_alpha    72.20561901156641
_cell_angle_beta     90.0
_cell_angle_gamma    90.0

_space_group_name_H-M_alt    "P 1"
_space_group_IT_number       1

loop_
  _space_group_symop_operation_xyz
  'x, y, z'

loop_
  _atom_site_type_symbol
  _atom_site_label
  _atom_site_symmetry_multiplicity
  _atom_site_fract_x
  _atom_site_fract_y
  _atom_site_fract_z
  _atom_site_occupancy
  Sr  Sr1       1.0  0.002917076926678419  0.6717754015699029  0.9499687161878683  1.0000
  Sr  Sr2       1.0  0.35414640452654567  0.3556063836440444  0.6798696425685193  1.0000
  Cu  Cu1       1.0  0.13407750707119703  0.6716666934080422  0.4169108664500527  1.0000
  Cu  Cu2       1.0  0.8147623836994171  0.9084384581074119  0.29007985233329237  1.0000
  H   H1        1.0  0.45011129532940686  0.4081673667533323  0.4601258224574849  1.0000
  H   H2        1.0  0.36131220567040145  0.9860201641567983  0.6906250966712832  1.0000
  H   H3        1.0  0.9510976932942867  0.04902137815952301  0.8187629827298224  1.0000
  H   H4        1.0  0.08733475767076015  0.6071380209177732  0.9735077535733581  1.0000
  H   H5        1.0  0.33003981644287705  0.820473063737154  0.6019603902532253  1.0000
  H   H6        1.0  0.7324480747338384  0.4802900552749634  0.2626008279621601  1.0000
  H   H7        1.0  0.05041004018858075  0.7460573725402355  0.8795827144058421  1.0000
  H   H8        1.0  0.34246593265561387  0.6316072967892978  0.9681565217906609  1.0000
  H   H9        1.0  0.6815933277830482  0.4398183966986835  0.30061487341299653  1.0000
  H   H10       1.0  0.5346680288203061  0.05427341675385833  0.33008418534882367  1.0000
  H   H11       1.0  0.21058316034032032  0.9120058482512832  0.33349045494105667  1.0000
  H   H12       1.0  0.18678160570561886  0.5874477569013834  0.9925609845668077  1.0000
  O   O1        1.0  0.18135690042981878  0.6696596343681449  0.7351283435709774  1.0000
  O   O2        1.0  0.7764793108217418  0.9327473165467381  0.5956367556937039  1.0000
  O   O3        1.0  0.8666169031057507  0.9431302574230358  0.023946499219164252  1.0000
  O   O4        1.0  0.7522596514318138  0.3769822579342872  0.4076104424893856  1.0000
  O   O5        1.0  0.6082605541450903  0.8396167632890865  0.9101035461499123  1.0000
  O   O6        1.0  0.188046935305465  0.012674819678068161  0.8435990017605945  1.0000
  O   O7        1.0  0.4543391354382038  0.43654928961768746  0.4354856102982012  1.0000
  O   O8        1.0  0.9734213082119823  0.9325921285199001  0.19397897098679096  1.0000
  O   O9        1.0  0.25500298049882986  0.4449207904981449  0.7749942189548165  1.0000
  O   O10       1.0  0.639505427563563  0.3423508470878005  0.33567550586303696  1.0000
data_image143
_chemical_formula_structural       Sr2Cu2H12O10
_chemical_formula_sum              "Sr2 Cu2 H12 O10"
_cell_length_a       6.296725
_cell_length_b       5.467378000000002
_cell_length_c       7.977295878227032
_cell_angle_alpha    72.20561901156641
_cell_angle_beta     90.0
_cell_angle_gamma    90.0

_space_group_name_H-M_alt    "P 1"
_space_group_IT_number       1

loop_
  _space_group_symop_operation_xyz
  'x, y, z'

loop_
  _atom_site_type_symbol
  _atom_site_label
  _atom_site_symmetry_multiplicity
  _atom_site_fract_x
  _atom_site_fract_y
  _atom_site_fract_z
  _atom_site_occupancy
  Sr  Sr1       1.0  0.12342088925652206  0.38090300536714494  0.5610198965296149  1.0000
  Sr  Sr2       1.0  0.02978212118614465  0.9002097107004374  0.653751990525052  1.0000
  Cu  Cu1       1.0  0.4939441988244653  0.005985658848658204  0.4628348135156557  1.0000
  Cu  Cu2       1.0  0.6410731382202357  0.8485077675431967  0.2583676017820835  1.0000
  H   H1        1.0  0.14871077821590006  0.8597565703094006  0.4996778602944687  1.0000
  H   H2        1.0  0.9726280265022069  0.11996661097509786  0.9582448378205299  1.0000
  H   H3        1.0  0.5453586224466562  0.03023337572813034  0.055723138619214296  1.0000
  H   H4        1.0  0.30817684531211853  0.15429875999689102  0.6731525766663253  1.0000
  H   H5        1.0  0.1775476555339992  0.8889324190095067  0.6103615928877844  1.0000
  H   H6        1.0  0.13155614910647273  0.700968723744154  0.9182253777980804  1.0000
  H   H7        1.0  0.03483306325506419  0.5592614207416773  0.4944903131108731  1.0000
  H   H8        1.0  0.17479424353223294  0.46436844879644923  0.17398577241692692  1.0000
  H   H9        1.0  0.5913750866893679  0.39700519223697484  0.4485113751143217  1.0000
  H   H10       1.0  0.3773140830453485  0.002668000292032957  0.5297406250610948  1.0000
  H   H11       1.0  0.03575219277990982  0.669096764177084  0.9576711718691513  1.0000
  H   H12       1.0  0.3021044656634331  0.9998809872195125  0.916835393756628  1.0000
  O   O1        1.0  0.2605099857901223  0.6004310050630011  0.32843780575785786  1.0000
  O   O2        1.0  0.2841394324786961  0.6932248473167419  0.25571243022568524  1.0000
  O   O3        1.0  0.041185705922544  0.6347778907511383  0.9741309370147064  1.0000
  O   O4        1.0  0.1551281891297549  0.09389195768744685  0.21555500873364508  1.0000
  O   O5        1.0  0.5934352539479733  0.4196174688404426  0.5132226249261294  1.0000
  O   O6        1.0  0.7812958259019069  0.22655142564326525  0.5023179217241704  1.0000
  O   O7        1.0  0.4840295577305369  0.5270173707976937  0.020188616199448006  1.0000
  O   O8        1.0  0.2632827495690435  0.27102132805157453  0.9900910715805367  1.0000
  O   O9        1.0  0.5687007018495933  0.39076921402011067  0.607186455570627  1.0000
  O   O10       1.0  0.23761309799738228  0.4490256414283067  0.09894495259504765  1.0000
data_image144
_chemical_formula_structural       Sr2Cu2H12O10
_chemical_formula_sum              "Sr2 Cu2 H12 O10"
_cell_length_a       6.296725
_cell_length_b       5.467378000000002
_cell_length_c       7.977295878227032
_cell_angle_alpha    72.20561901156641
_cell_angle_beta     90.0
_cell_angle_gamma    90.0

_space_group_name_H-M_alt    "P 1"
_space_group_IT_number       1

loop_
  _space_group_symop_operation_xyz
  'x, y, z'

loop_
  _atom_site_type_symbol
  _atom_site_label
  _atom_site_symmetry_multiplicity
  _atom_site_fract_x
  _atom_site_fract_y
  _atom_site_fract_z
  _atom_site_occupancy
  Sr  Sr1       1.0  0.13464270625263453  0.13285897066816688  0.5433989152079448  1.0000
  Sr  Sr2       1.0  0.5767039405764081  0.868332278681919  0.29953000851674005  1.0000
  Cu  Cu1       1.0  0.16543990303762257  0.3641819474287331  0.09034451557090506  1.0000
  Cu  Cu2       1.0  0.31924245902337134  0.967041352763772  0.0222299222368747  1.0000
  H   H1        1.0  0.6785296138841659  0.2617168956203386  0.5132022307952866  1.0000
  H   H2        1.0  0.5461296588182449  0.7439015511772595  0.8553817165084183  1.0000
  H   H3        1.0  0.6694228444248438  0.15979234129190445  0.8194963727146387  1.0000
  H   H4        1.0  0.26596598140895367  0.643385635688901  0.816884832456708  1.0000
  H   H5        1.0  0.45790455862879753  0.298789550550282  0.7710519458632916  1.0000
  H   H6        1.0  0.8800084555987269  0.4008633028715849  0.20641066087409854  1.0000
  H   H7        1.0  0.5311570912599564  0.2285374067723751  0.4847529449034482  1.0000
  H   H8        1.0  0.8339848848991096  0.14962191185622942  0.4740515616722405  1.0000
  H   H9        1.0  0.40424680011346936  0.9705637264996767  0.961029069731012  1.0000
  H   H10       1.0  0.6170798125676811  0.5490236659534276  0.70100386464037  1.0000
  H   H11       1.0  0.9340151267242618  0.32231543492525816  0.09673960169311613  1.0000
  H   H12       1.0  0.8030133335851133  0.18662882689386606  0.2695172689855099  1.0000
  O   O1        1.0  0.21470584004418924  0.06981353992887307  0.7953478755662218  1.0000
  O   O2        1.0  0.04364744899794459  0.18067314010113478  0.6921591903083026  1.0000
  O   O3        1.0  0.0932932763826102  0.5531600715476088  0.4708116422407329  1.0000
  O   O4        1.0  0.21693016961216927  0.45293986931210384  0.43975850683636963  1.0000
  O   O5        1.0  0.6345294839702547  0.5336712768767029  0.19629639109189156  1.0000
  O   O6        1.0  0.773753812070936  0.17908955598250031  0.6722123094368726  1.0000
  O   O7        1.0  0.8280985034070909  0.11366336769424379  0.7599779793272319  1.0000
  O   O8        1.0  0.8583426090190187  0.014262574026361108  0.275355241028592  1.0000
  O   O9        1.0  0.4528730192978401  0.7088082648115233  0.33420244489389006  1.0000
  O   O10       1.0  0.6653982647694647  0.3866901663132012  0.8997037205263041  1.0000
data_image145
_chemical_formula_structural       Sr2Cu2H12O10
_chemical_formula_sum              "Sr2 Cu2 H12 O10"
_cell_length_a       6.296725
_cell_length_b       5.467378000000002
_cell_length_c       7.977295878227032
_cell_angle_alpha    72.20561901156641
_cell_angle_beta     90.0
_cell_angle_gamma    90.0

_space_group_name_H-M_alt    "P 1"
_space_group_IT_number       1

loop_
  _space_group_symop_operation_xyz
  'x, y, z'

loop_
  _atom_site_type_symbol
  _atom_site_label
  _atom_site_symmetry_multiplicity
  _atom_site_fract_x
  _atom_site_fract_y
  _atom_site_fract_z
  _atom_site_occupancy
  Sr  Sr1       1.0  0.46527268015779555  0.3341904701665044  0.6568767915014178  1.0000
  Sr  Sr2       1.0  0.2806514202748076  0.35282702976837754  0.21443455154076219  1.0000
  Cu  Cu1       1.0  0.9169811514439061  0.8180892600212246  0.9529336291598156  1.0000
  Cu  Cu2       1.0  0.9632798545062542  0.7592397937551141  0.6217798762954772  1.0000
  H   H1        1.0  0.2040996877476573  0.45459831750486046  0.17019253002945334  1.0000
  H   H2        1.0  0.5300901413429528  0.38912955654086545  0.6028783600777388  1.0000
  H   H3        1.0  0.43303972389549017  0.8159058466553688  0.3200625763274729  1.0000
  H   H4        1.0  0.5085336342453957  0.030021682381629944  0.33204882964491844  1.0000
  H   H5        1.0  0.9022294622845948  0.5724159236997366  0.5272888127801707  1.0000
  H   H6        1.0  0.138245947426185  0.540852777659893  0.6179505591280758  1.0000
  H   H7        1.0  0.9618836658773944  0.0582899609580636  0.4813763016136363  1.0000
  H   H8        1.0  0.8292564606526867  0.2878812652634224  0.9233931321068667  1.0000
  H   H9        1.0  0.5416667917743325  0.9862001792062074  0.27505506481975317  1.0000
  H   H10       1.0  0.40242541627958417  0.13287226296961308  0.1469504702836275  1.0000
  H   H11       1.0  0.6940717275138013  0.3869650484994054  0.20170803216751665  1.0000
  H   H12       1.0  0.9908841480500996  0.8076414298266172  0.11765143275260925  1.0000
  O   O1        1.0  0.7008401937200688  0.0037547594984062016  0.6140590598806739  1.0000
  O   O2        1.0  0.8331567491404712  0.6971361706964672  0.4295653495937586  1.0000
  O   O3        1.0  0.13385606883093715  0.11482158914441243  0.011251166113652289  1.0000
  O   O4        1.0  0.40668430528603494  0.720767656865064  0.8715850396547467  1.0000
  O   O5        1.0  0.456834688433446  0.1491171099478379  0.2558443619636819  1.0000
  O   O6        1.0  0.19787159201223403  0.665583897382021  0.9960026434855536  1.0000
  O   O7        1.0  0.9821654871338978  0.24120434653013945  0.3739818211761303  1.0000
  O   O8        1.0  0.021079680183902383  0.13159501855261624  0.09955113648902625  1.0000
  O   O9        1.0  0.641800744298962  0.5905148945166729  0.7180171860381961  1.0000
  O   O10       1.0  0.1962351881666109  0.8005533784162253  0.1495509155211039  1.0000
data_image146
_chemical_formula_structural       Sr2Cu2H12O10
_chemical_formula_sum              "Sr2 Cu2 H12 O10"
_cell_length_a       6.296725
_cell_length_b       5.467378000000002
_cell_length_c       7.977295878227032
_cell_angle_alpha    72.20561901156641
_cell_angle_beta     90.0
_cell_angle_gamma    90.0

_space_group_name_H-M_alt    "P 1"
_space_group_IT_number       1

loop_
  _space_group_symop_operation_xyz
  'x, y, z'

loop_
  _atom_site_type_symbol
  _atom_site_label
  _atom_site_symmetry_multiplicity
  _atom_site_fract_x
  _atom_site_fract_y
  _atom_site_fract_z
  _atom_site_occupancy
  Sr  Sr1       1.0  0.022731203818693757  0.7916945251636207  0.6803136044181883  1.0000
  Sr  Sr2       1.0  0.8107142044755165  0.372763654217124  0.9089554158272222  1.0000
  Cu  Cu1       1.0  0.9681006548926234  0.14691357384435833  0.7697687824838795  1.0000
  Cu  Cu2       1.0  0.23322692164219916  0.39227243536151946  0.3231535409577191  1.0000
  H   H1        1.0  0.271138145821169  0.615938070230186  0.8292503919219598  1.0000
  H   H2        1.0  0.5215517769102007  0.7300202694896143  0.993379469960928  1.0000
  H   H3        1.0  0.57622548379004  0.8190529476851225  0.1770170875824988  1.0000
  H   H4        1.0  0.22677837125957012  0.10193640366196632  0.5276327151805162  1.0000
  H   H5        1.0  0.7150812977924943  0.35723980888724327  0.366169918270316  1.0000
  H   H6        1.0  0.6977363305632025  0.8272835575044155  0.18478784197941422  1.0000
  H   H7        1.0  0.5181324245641008  0.4102324414998293  0.45533505466300994  1.0000
  H   H8        1.0  0.6632119348505512  0.5763219203508925  0.4317846064805053  1.0000
  H   H9        1.0  0.83575977711007  0.3253880846314132  0.05108905769884586  1.0000
  H   H10       1.0  0.8121362174861133  0.9882710566744208  0.5838097285013646  1.0000
  H   H11       1.0  0.6040684158215299  0.7150327367708087  0.5527238369686529  1.0000
  H   H12       1.0  0.5253347046673298  0.7166330441832542  0.43591174855828285  1.0000
  O   O1        1.0  0.6173775786301121  0.9481473723426461  0.9367968018632382  1.0000
  O   O2        1.0  0.33048324985429645  0.4615917792543769  0.3792517448309809  1.0000
  O   O3        1.0  0.5652459769044071  0.4156691040843725  0.15167044871486723  1.0000
  O   O4        1.0  0.8910697961691767  0.6312785060144961  0.7400830201804638  1.0000
  O   O5        1.0  0.7556965318508446  0.874425356509164  0.04453509926679544  1.0000
  O   O6        1.0  0.5925841560820118  0.6926381443627179  0.6697800670517609  1.0000
  O   O7        1.0  0.9040593593963422  0.2510127981659025  0.6773575786883157  1.0000
  O   O8        1.0  0.8633991038368549  0.39456611790228635  0.6988614947767928  1.0000
  O   O9        1.0  0.41363493146491237  0.3297622372629121  0.5070601221814286  1.0000
  O   O10       1.0  0.7680588457733393  0.8429892933927476  0.49221455061342567  1.0000
data_image147
_chemical_formula_structural       Sr2Cu2H12O10
_chemical_formula_sum              "Sr2 Cu2 H12 O10"
_cell_length_a       6.296725
_cell_length_b       5.467378000000002
_cell_length_c       7.977295878227032
_cell_angle_alpha    72.20561901156641
_cell_angle_beta     90.0
_cell_angle_gamma    90.0

_space_group_name_H-M_alt    "P 1"
_space_group_IT_number       1

loop_
  _space_group_symop_operation_xyz
  'x, y, z'

loop_
  _atom_site_type_symbol
  _atom_site_label
  _atom_site_symmetry_multiplicity
  _atom_site_fract_x
  _atom_site_fract_y
  _atom_site_fract_z
  _atom_site_occupancy
  Sr  Sr1       1.0  0.7478157406440005  0.9844331771600991  0.25695991958491504  1.0000
  Sr  Sr2       1.0  0.4686532345658634  0.4157096054404974  0.18493669596500695  1.0000
  Cu  Cu1       1.0  0.9070423216326162  0.21502385381609201  0.8210502185975201  1.0000
  Cu  Cu2       1.0  0.04105914244428277  0.6103822120931  0.32783166924491525  1.0000
  H   H1        1.0  0.5260363586712629  0.3068257562117651  0.5871561479289085  1.0000
  H   H2        1.0  0.9876170549541712  0.28197403439844493  0.249811046756804  1.0000
  H   H3        1.0  0.5623685084283352  0.060310330241918564  0.2665714086033404  1.0000
  H   H4        1.0  0.5485421977937222  0.04092245176434517  0.5384033476002514  1.0000
  H   H5        1.0  0.4191550281830132  0.02358903782442212  0.36652081517968327  1.0000
  H   H6        1.0  0.4625624059699476  0.7743832431733608  0.7650126381777227  1.0000
  H   H7        1.0  0.05272722523659468  0.20986877754330635  0.052664082380943  1.0000
  H   H8        1.0  0.7246959073236212  0.8372524888782209  0.4911897305864841  1.0000
  H   H9        1.0  0.8998993004206568  0.9994792605284601  0.34624068066477776  1.0000
  H   H10       1.0  0.8448133422061801  0.5473490445874631  0.9812066024169326  1.0000
  H   H11       1.0  0.8366158219287172  0.7736858073621988  0.33891095186118037  1.0000
  H   H12       1.0  0.7221098616719246  0.15716969780623913  0.8904562015086412  1.0000
  O   O1        1.0  0.7753965522861108  0.7526116784720216  0.10189343336969614  1.0000
  O   O2        1.0  0.44979193806648254  0.3502002484165132  0.19204268231987953  1.0000
  O   O3        1.0  0.7751076039858162  0.8886754509876482  0.8890039976686239  1.0000
  O   O4        1.0  0.5193730634637177  0.9355778038443532  0.5031290587503463  1.0000
  O   O5        1.0  0.31945245317183435  0.8647596278460696  0.5624040831899038  1.0000
  O   O6        1.0  0.8262204817729071  0.739928939845413  0.27656035241670907  1.0000
  O   O7        1.0  0.6084725990076549  0.034690267872065306  0.9476086835138631  1.0000
  O   O8        1.0  0.8065129798196722  0.23497751378454268  0.19347534619737417  1.0000
  O   O9        1.0  0.42632337062241277  0.44976565439719707  0.37331071944208816  1.0000
  O   O10       1.0  0.7158263161545619  0.5983225116506219  0.5309942705207504  1.0000
data_image148
_chemical_formula_structural       Sr2Cu2H12O10
_chemical_formula_sum              "Sr2 Cu2 H12 O10"
_cell_length_a       6.296725
_cell_length_b       5.467378000000002
_cell_length_c       7.977295878227032
_cell_angle_alpha    72.20561901156641
_cell_angle_beta     90.0
_cell_angle_gamma    90.0

_space_group_name_H-M_alt    "P 1"
_space_group_IT_number       1

loop_
  _space_group_symop_operation_xyz
  'x, y, z'

loop_
  _atom_site_type_symbol
  _atom_site_label
  _atom_site_symmetry_multiplicity
  _atom_site_fract_x
  _atom_site_fract_y
  _atom_site_fract_z
  _atom_site_occupancy
  Sr  Sr1       1.0  0.6381291693542153  0.49571444489993155  0.5332639052066952  1.0000
  Sr  Sr2       1.0  0.7998600409482606  0.4698698758147657  0.9559558689361438  1.0000
  Cu  Cu1       1.0  0.30427157937083393  0.5898321124259382  0.3723696111701429  1.0000
  Cu  Cu2       1.0  0.11952803237363696  0.6699977468233556  0.1437553211580962  1.0000
  H   H1        1.0  0.8446859512478113  0.6311372647760436  0.772860903176479  1.0000
  H   H2        1.0  0.09462674125097692  0.3359547762956936  0.30868309177458286  1.0000
  H   H3        1.0  0.39281928166747093  0.6363390907645226  0.7309924531728029  1.0000
  H   H4        1.0  0.6563714034855366  0.17559269070625305  0.3202272057533264  1.0000
  H   H5        1.0  0.8764754319563508  0.49122402677312493  0.8423355320410337  1.0000
  H   H6        1.0  0.3236775081604719  0.7920802235603333  0.09980153664946556  1.0000
  H   H7        1.0  0.7899862264748663  0.49124329164624214  0.17005560419056565  1.0000
  H   H8        1.0  0.09587772015947849  0.43434103171603056  0.7675122421351261  1.0000
  H   H9        1.0  0.6756410608068109  0.5061726672574878  0.6233222808223218  1.0000
  H   H10       1.0  0.7543494231067598  0.7010117718018591  0.5202205502428114  1.0000
  H   H11       1.0  0.605270562460646  0.8791615748777986  0.3887407201109454  1.0000
  H   H12       1.0  0.706258756108582  0.7379249297082424  0.7440500166267157  1.0000
  O   O1        1.0  0.3169067063136026  0.5603274100576527  0.38652513187844306  1.0000
  O   O2        1.0  0.9567323233932257  0.37584404880180955  0.29804998612962663  1.0000
  O   O3        1.0  0.034515871899202466  0.05252733902307227  0.5790675969328731  1.0000
  O   O4        1.0  0.7603914227802306  0.3093622316373512  0.4695862466469407  1.0000
  O   O5        1.0  0.33787365013267845  0.471786257927306  0.4790704613260459  1.0000
  O   O6        1.0  0.12440547056030482  0.1679542693309486  0.04505807004170492  1.0000
  O   O7        1.0  0.6023932311218232  0.9893258544616401  0.4092681420615918  1.0000
  O   O8        1.0  0.3841645451175282  0.49680849735159427  0.9061825667740777  1.0000
  O   O9        1.0  0.2088746362933307  0.4853567909449339  0.774513041775208  1.0000
  O   O10       1.0  0.3573734425008297  0.7875796824228019  0.8949140783515759  1.0000
data_image149
_chemical_formula_structural       Sr2Cu2H12O10
_chemical_formula_sum              "Sr2 Cu2 H12 O10"
_cell_length_a       6.296725
_cell_length_b       5.467378000000002
_cell_length_c       7.977295878227032
_cell_angle_alpha    72.20561901156641
_cell_angle_beta     90.0
_cell_angle_gamma    90.0

_space_group_name_H-M_alt    "P 1"
_space_group_IT_number       1

loop_
  _space_group_symop_operation_xyz
  'x, y, z'

loop_
  _atom_site_type_symbol
  _atom_site_label
  _atom_site_symmetry_multiplicity
  _atom_site_fract_x
  _atom_site_fract_y
  _atom_site_fract_z
  _atom_site_occupancy
  Sr  Sr1       1.0  0.3097360433312133  0.6675003974232823  0.365137352142483  1.0000
  Sr  Sr2       1.0  0.724178985634353  0.8073337529785931  0.537206107401289  1.0000
  Cu  Cu1       1.0  0.11026826326269656  0.18231919407844543  0.5940821029362269  1.0000
  Cu  Cu2       1.0  0.10027722385711968  0.16194210853427649  0.7714192576240748  1.0000
  H   H1        1.0  0.8577359721530229  0.04194690706208348  0.8306971197016537  1.0000
  H   H2        1.0  0.9996085683815181  0.5348584650782868  0.34523595310747623  1.0000
  H   H3        1.0  0.22222038265317678  0.6485299002379179  0.9120387490838766  1.0000
  H   H4        1.0  0.7463496215641499  0.4621998891234398  0.3129016193561256  1.0000
  H   H5        1.0  0.730497588403523  0.7331720879301429  0.32687299366807565  1.0000
  H   H6        1.0  0.11218705866485834  0.7268096283078194  0.8820199142210186  1.0000
  H   H7        1.0  0.04409557022154331  0.03147689811885357  0.8249974224017933  1.0000
  H   H8        1.0  0.9090091722318903  0.9039247621112736  0.6130622524651699  1.0000
  H   H9        1.0  0.20447064854670316  0.6849368633702397  0.2414298274088651  1.0000
  H   H10       1.0  0.0382902012206614  0.21534951915964484  0.7038072843570262  1.0000
  H   H11       1.0  0.10818870866205543  0.12835597805678844  0.4514460895443335  1.0000
  H   H12       1.0  0.23789173271507025  0.6749847838655114  0.6119477357715368  1.0000
  O   O1        1.0  0.6422518473118544  0.8652974700962659  0.601594535401091  1.0000
  O   O2        1.0  0.8062184480950236  0.8789405273273587  0.9353799694217741  1.0000
  O   O3        1.0  0.8089565453119576  0.5531887615215965  0.009635990485548973  1.0000
  O   O4        1.0  0.526533100521192  0.24435126601019874  0.8064269351307303  1.0000
  O   O5        1.0  0.5296739473706111  0.046243551885709167  0.2263676658330951  1.0000
  O   O6        1.0  0.3087605978362262  0.8502508965320885  0.875459780159872  1.0000
  O   O7        1.0  0.8564429258112796  0.13500812626443803  0.9959290601345856  1.0000
  O   O8        1.0  0.5953664393891813  0.7668116464046761  0.20950634160544723  1.0000
  O   O9        1.0  0.39434915824676864  0.538655657612253  0.25537172064650804  1.0000
  O   O10       1.0  0.35805753839667886  0.5334251248277724  0.2535120567190461  1.0000
data_image150
_chemical_formula_structural       Sr2Cu2H12O10
_chemical_formula_sum              "Sr2 Cu2 H12 O10"
_cell_length_a       6.296725
_cell_length_b       5.467378000000002
_cell_length_c       7.977295878227032
_cell_angle_alpha    72.20561901156641
_cell_angle_beta     90.0
_cell_angle_gamma    90.0

_space_group_name_H-M_alt    "P 1"
_space_group_IT_number       1

loop_
  _space_group_symop_operation_xyz
  'x, y, z'

loop_
  _atom_site_type_symbol
  _atom_site_label
  _atom_site_symmetry_multiplicity
  _atom_site_fract_x
  _atom_site_fract_y
  _atom_site_fract_z
  _atom_site_occupancy
  Sr  Sr1       1.0  0.6847361674299464  0.6560592693276703  0.17140890541486442  1.0000
  Sr  Sr2       1.0  0.19039593244087882  0.8152501215226948  0.8964748980943114  1.0000
  Cu  Cu1       1.0  0.7925666091032326  0.7719309378881007  0.44811339647276327  1.0000
  Cu  Cu2       1.0  0.9253045408986509  0.4838761813007295  0.43668638705275953  1.0000
  H   H1        1.0  0.3835266449023038  0.15975721087306738  0.8994023238774389  1.0000
  H   H2        1.0  0.8108778935857117  0.5901731629855931  0.4741828329861164  1.0000
  H   H3        1.0  0.706442479044199  0.34411552734673023  0.4361085081472993  1.0000
  H   H4        1.0  0.5038903690874577  0.6218853536993265  0.9255984178744256  1.0000
  H   H5        1.0  0.3086343011818826  0.11293276771903038  0.07715158327482641  1.0000
  H   H6        1.0  0.758238086476922  0.08967862650752068  0.11477926094084978  1.0000
  H   H7        1.0  0.5587311903946102  0.37168210837990046  0.28214330750051886  1.0000
  H   H8        1.0  0.07207062479574233  0.039950751553988084  0.14815571065992117  1.0000
  H   H9        1.0  0.25556368532124907  0.48741802107542753  0.6466715856222436  1.0000
  H   H10       1.0  0.908648727927357  0.8549727401696146  0.6609074361622334  1.0000
  H   H11       1.0  0.8000050017144531  0.49615179002285004  0.8903750883182511  1.0000
  H   H12       1.0  0.7609507013112307  0.5352203901857138  0.3279569800943136  1.0000
  O   O1        1.0  0.9301792841288261  0.44626421100110747  0.7182029602117836  1.0000
  O   O2        1.0  0.11805832525715232  0.17508368380367756  0.2978817874100059  1.0000
  O   O3        1.0  0.08761069714091718  0.17594849568558857  0.2054174713557586  1.0000
  O   O4        1.0  0.5682956094387919  0.6075014114903752  0.9601354522164911  1.0000
  O   O5        1.0  0.5562541325343773  0.4287427591625601  0.9684970064117806  1.0000
  O   O6        1.0  0.053415226633660495  0.006642290856689215  0.7150205856305547  1.0000
  O   O7        1.0  0.13083050993736833  0.752965013962239  0.28743978825514205  1.0000
  O   O8        1.0  0.6382390422513708  0.1426834051962942  0.7123075271956623  1.0000
  O   O9        1.0  0.6144839837725158  0.7043181748013012  0.1362057677906705  1.0000
  O   O10       1.0  0.5334382663713768  0.3165463588666171  0.49445627303794026  1.0000
data_image151
_chemical_formula_structural       Sr2Cu2H12O10
_chemical_formula_sum              "Sr2 Cu2 H12 O10"
_cell_length_a       6.296725
_cell_length_b       5.467378000000002
_cell_length_c       7.977295878227032
_cell_angle_alpha    72.20561901156641
_cell_angle_beta     90.0
_cell_angle_gamma    90.0

_space_group_name_H-M_alt    "P 1"
_space_group_IT_number       1

loop_
  _space_group_symop_operation_xyz
  'x, y, z'

loop_
  _atom_site_type_symbol
  _atom_site_label
  _atom_site_symmetry_multiplicity
  _atom_site_fract_x
  _atom_site_fract_y
  _atom_site_fract_z
  _atom_site_occupancy
  Sr  Sr1       1.0  0.034511085017584264  0.014759642072021961  0.8634933985304087  1.0000
  Sr  Sr2       1.0  0.486381759023061  0.3316081566736102  0.2437818932812661  1.0000
  Cu  Cu1       1.0  0.3923890474252403  0.22219112911261618  0.15503712266217917  1.0000
  Cu  Cu2       1.0  0.1285168221220374  0.16897559096105397  0.5176648166961968  1.0000
  H   H1        1.0  0.21370789897628129  0.9858618869911879  0.5336062622955069  1.0000
  H   H2        1.0  0.8115618445444852  0.5000579283805564  0.2344136694446206  1.0000
  H   H3        1.0  0.5305486125871539  0.11583361588418484  0.7822309681214392  1.0000
  H   H4        1.0  0.34738291054964066  0.8397909607738256  0.5621211440302432  1.0000
  H   H5        1.0  0.5778846442699432  0.8185150995850563  0.30029558402020484  1.0000
  H   H6        1.0  0.8407162132207304  0.09609668329358101  0.7945228675380349  1.0000
  H   H7        1.0  0.7202687320532277  0.9159527281299233  0.4917980442987755  1.0000
  H   H8        1.0  0.14561754348687828  0.20423509854299482  0.5737845232943073  1.0000
  H   H9        1.0  0.0948545082937926  0.7948490316048265  0.8172520624939352  1.0000
  H   H10       1.0  0.5546811469830573  0.5011556935496628  0.6890069008804858  1.0000
  H   H11       1.0  0.6194209033856168  0.12725024297833443  0.29454512102529407  1.0000
  H   H12       1.0  0.724959152052179  0.1393867889419198  0.34810953587293625  1.0000
  O   O1        1.0  0.04705325257964432  0.8336362672271207  0.2527866407763213  1.0000
  O   O2        1.0  0.7705549015663564  0.8116489970125258  0.8510288540273905  1.0000
  O   O3        1.0  0.8186677244957536  0.4750627988833003  0.9108742995886132  1.0000
  O   O4        1.0  0.06301445420831442  0.44634624972241  0.8149637659080327  1.0000
  O   O5        1.0  0.7517894048942253  0.11381634545978159  0.4150056046928512  1.0000
  O   O6        1.0  0.6311496241251007  0.993823264259845  0.33569986547809094  1.0000
  O   O7        1.0  0.9194126311922446  0.9926522872410715  0.6584742970426305  1.0000
  O   O8        1.0  0.862053519973415  0.9434532340383157  0.7709227263694629  1.0000
  O   O9        1.0  0.9711071922210976  0.27943898388184607  0.8928657577198464  1.0000
  O   O10       1.0  0.9117119812872261  0.4524521492421627  0.4870368870906532  1.0000
data_image152
_chemical_formula_structural       Sr2Cu2H12O10
_chemical_formula_sum              "Sr2 Cu2 H12 O10"
_cell_length_a       6.296725
_cell_length_b       5.467378000000002
_cell_length_c       7.977295878227032
_cell_angle_alpha    72.20561901156641
_cell_angle_beta     90.0
_cell_angle_gamma    90.0

_space_group_name_H-M_alt    "P 1"
_space_group_IT_number       1

loop_
  _space_group_symop_operation_xyz
  'x, y, z'

loop_
  _atom_site_type_symbol
  _atom_site_label
  _atom_site_symmetry_multiplicity
  _atom_site_fract_x
  _atom_site_fract_y
  _atom_site_fract_z
  _atom_site_occupancy
  Sr  Sr1       1.0  0.2860460861120373  0.320146142039448  0.28659184952266514  1.0000
  Sr  Sr2       1.0  0.27441030742193107  0.17135067703202367  0.8351003094576299  1.0000
  Cu  Cu1       1.0  0.9125073998002335  0.5963651179336011  0.9902465809136629  1.0000
  Cu  Cu2       1.0  0.14171143900603056  0.4197441069409251  0.6733797311317176  1.0000
  H   H1        1.0  0.8701583817601204  0.9333167083095759  0.26907136233057827  1.0000
  H   H2        1.0  0.9994252691976726  0.9984045666642487  0.6581931784749031  1.0000
  H   H3        1.0  0.9518123278394341  0.4408028144389391  0.6031662528403103  1.0000
  H   H4        1.0  0.08494395576417446  0.2607325315475464  0.9167558434419334  1.0000
  H   H5        1.0  0.485261058434844  0.2721827467903495  0.5274389409460127  1.0000
  H   H6        1.0  0.9493058949010447  0.21269305516034365  0.5360933523625135  1.0000
  H   H7        1.0  0.7415421481709927  0.24186184629797935  0.9703574803424999  1.0000
  H   H8        1.0  0.11639829957857728  0.3354339364450425  0.3207763094105758  1.0000
  H   H9        1.0  0.35330887068994343  0.9378561098128557  0.428198310197331  1.0000
  H   H10       1.0  0.6134350805077702  0.6436541583389044  0.5267416203860193  1.0000
  H   H11       1.0  0.8754908323753625  0.39624340273439884  0.01679821510333568  1.0000
  H   H12       1.0  0.7016267692670226  0.3506568055599928  0.2330154851078987  1.0000
  O   O1        1.0  0.2816494047874585  0.6084502408339176  0.5124460702063516  1.0000
  O   O2        1.0  0.12074890546500683  0.9017307707108557  0.707708086585626  1.0000
  O   O3        1.0  0.19773991545662284  0.5458781760535203  0.8235020679421723  1.0000
  O   O4        1.0  0.9561783336102962  0.878499864047626  0.3486638246104121  1.0000
  O   O5        1.0  0.8380972138838843  0.6790304871974513  0.8553776732587721  1.0000
  O   O6        1.0  0.7136402762262151  0.7046752069145441  0.6299500622553751  1.0000
  O   O7        1.0  0.36694629542762414  0.2550241919234395  0.38786347359746287  1.0000
  O   O8        1.0  0.21627664208062924  0.4813207855913788  0.4557275135302916  1.0000
  O   O9        1.0  0.058500025181274395  0.3472940670908429  0.7245066214818507  1.0000
  O   O10       1.0  0.22635747760068625  0.5106093205977231  0.35514582018367946  1.0000
data_image153
_chemical_formula_structural       Sr2Cu2H12O10
_chemical_formula_sum              "Sr2 Cu2 H12 O10"
_cell_length_a       6.296725
_cell_length_b       5.467378000000002
_cell_length_c       7.977295878227032
_cell_angle_alpha    72.20561901156641
_cell_angle_beta     90.0
_cell_angle_gamma    90.0

_space_group_name_H-M_alt    "P 1"
_space_group_IT_number       1

loop_
  _space_group_symop_operation_xyz
  'x, y, z'

loop_
  _atom_site_type_symbol
  _atom_site_label
  _atom_site_symmetry_multiplicity
  _atom_site_fract_x
  _atom_site_fract_y
  _atom_site_fract_z
  _atom_site_occupancy
  Sr  Sr1       1.0  0.2920878097647801  0.7984432752709836  0.3348158660810441  1.0000
  Sr  Sr2       1.0  0.9657722016709158  0.23612866457551718  0.8278851449722424  1.0000
  Cu  Cu1       1.0  0.010484750382602215  0.7663396361749619  0.17325781186809763  1.0000
  Cu  Cu2       1.0  0.22260137391276658  0.652865915093571  0.8677618219517171  1.0000
  H   H1        1.0  0.7054113331250846  0.2942379761952907  0.12178574304562062  1.0000
  H   H2        1.0  0.7714378873351961  0.9959200615994632  0.4033414348959923  1.0000
  H   H3        1.0  0.8143123677000403  0.6885591857135296  0.735672720707953  1.0000
  H   H4        1.0  0.3570364098995924  0.8429987691342831  0.8488680715672672  1.0000
  H   H5        1.0  0.2668012357316911  0.8895213422365487  0.8068527868017554  1.0000
  H   H6        1.0  0.6721711717545986  0.13109570322558284  0.09363119443878531  1.0000
  H   H7        1.0  0.985934917232953  0.9364382503554225  0.0674958333838731  1.0000
  H   H8        1.0  0.8123210773337632  0.5581532712676562  0.806138364947401  1.0000
  H   H9        1.0  0.8520852379733697  0.5563136925920844  0.4930669638561085  1.0000
  H   H10       1.0  0.6375329366419464  0.6110870172269642  0.9018221262376755  1.0000
  H   H11       1.0  0.9784155683591962  0.8583738710731268  0.24340167583432049  1.0000
  H   H12       1.0  0.550920371664688  0.9073926974087954  0.6830401662737131  1.0000
  O   O1        1.0  0.8772824098705314  0.8144898614264093  0.5778540377505124  1.0000
  O   O2        1.0  0.7854720675386488  0.06617011455819011  0.6273341537453234  1.0000
  O   O3        1.0  0.5826108152978122  0.5515827814233489  0.9284202340058982  1.0000
  O   O4        1.0  0.4958548166323453  0.49928324125357904  0.07572188950143754  1.0000
  O   O5        1.0  0.2751230716239661  0.938346985494718  0.7678489949030336  1.0000
  O   O6        1.0  0.07979078812059015  0.5455897403880954  0.7914248350425623  1.0000
  O   O7        1.0  0.11177841853350401  0.08033255347982049  0.7682919014605432  1.0000
  O   O8        1.0  0.2201864912203746  0.09939323924481869  0.22189619252458215  1.0000
  O   O9        1.0  0.2741319312917767  0.34625698713352904  0.4702447151648812  1.0000
  O   O10       1.0  0.19204906886443496  0.3645036604721099  0.2020218048710376  1.0000
data_image154
_chemical_formula_structural       Sr2Cu2H12O10
_chemical_formula_sum              "Sr2 Cu2 H12 O10"
_cell_length_a       6.296725
_cell_length_b       5.467378000000002
_cell_length_c       7.977295878227032
_cell_angle_alpha    72.20561901156641
_cell_angle_beta     90.0
_cell_angle_gamma    90.0

_space_group_name_H-M_alt    "P 1"
_space_group_IT_number       1

loop_
  _space_group_symop_operation_xyz
  'x, y, z'

loop_
  _atom_site_type_symbol
  _atom_site_label
  _atom_site_symmetry_multiplicity
  _atom_site_fract_x
  _atom_site_fract_y
  _atom_site_fract_z
  _atom_site_occupancy
  Sr  Sr1       1.0  0.9923943016910926  0.10007932037115097  0.09454432409256697  1.0000
  Sr  Sr2       1.0  0.19232475027092732  0.32362624257802963  0.7715228133602068  1.0000
  Cu  Cu1       1.0  0.18315117061138153  0.0318115851841867  0.6690134738455527  1.0000
  Cu  Cu2       1.0  0.7038802327588201  0.5671923565678298  0.8660013431217521  1.0000
  H   H1        1.0  0.8200829562265426  0.08795529301278293  0.1993018052307889  1.0000
  H   H2        1.0  0.8913693027570844  0.04354442923795432  0.6290783602744341  1.0000
  H   H3        1.0  0.9245540089905262  0.42859054543077946  0.9870531279593706  1.0000
  H   H4        1.0  0.9258208274841309  0.39409587532281876  0.332988316193223  1.0000
  H   H5        1.0  0.8007194316014647  0.12888882076367736  0.3822029107250273  1.0000
  H   H6        1.0  0.8065124176209792  0.7968306806869805  0.9730737041682005  1.0000
  H   H7        1.0  0.7989590978249907  0.9690920552238822  0.5886923322686926  1.0000
  H   H8        1.0  0.8756491732783616  0.9156432260060683  0.6587885948829353  1.0000
  H   H9        1.0  0.7365648134145886  0.84500752389431  0.17304737155791372  1.0000
  H   H10       1.0  0.7362722479738295  0.27280579460784793  0.5447626081295311  1.0000
  H   H11       1.0  0.6462996129412204  0.21790475770831108  0.9032263562548906  1.0000
  H   H12       1.0  0.1559242820367217  0.6998953223228455  0.1339288130402565  1.0000
  O   O1        1.0  0.49638137745205313  0.128740359301446  0.2912366548553109  1.0000
  O   O2        1.0  0.8402811391279101  0.6744529390707612  0.8464713878929615  1.0000
  O   O3        1.0  0.6170115584973246  0.824180998839438  0.054168986272998154  1.0000
  O   O4        1.0  0.4534565501380712  0.4120495190436486  0.4141805861145258  1.0000
  O   O5        1.0  0.6799777748528868  0.6948581738397479  0.7376537160453154  1.0000
  O   O6        1.0  0.542118874262087  0.2764263120479882  0.12722280068555847  1.0000
  O   O7        1.0  0.8907301496947184  0.22210416989400983  0.7226562989671947  1.0000
  O   O8        1.0  0.3413633062446024  0.18207903334405273  0.8782018186757341  1.0000
  O   O9        1.0  0.6113779463194078  0.37022722663823515  0.2285482369334204  1.0000
  O   O10       1.0  0.4901388694997877  0.3578945002518594  0.004557978711090982  1.0000
data_image155
_chemical_formula_structural       Sr2Cu2H12O10
_chemical_formula_sum              "Sr2 Cu2 H12 O10"
_cell_length_a       6.296725
_cell_length_b       5.467378000000002
_cell_length_c       7.977295878227032
_cell_angle_alpha    72.20561901156641
_cell_angle_beta     90.0
_cell_angle_gamma    90.0

_space_group_name_H-M_alt    "P 1"
_space_group_IT_number       1

loop_
  _space_group_symop_operation_xyz
  'x, y, z'

loop_
  _atom_site_type_symbol
  _atom_site_label
  _atom_site_symmetry_multiplicity
  _atom_site_fract_x
  _atom_site_fract_y
  _atom_site_fract_z
  _atom_site_occupancy
  Sr  Sr1       1.0  0.11420025094412267  0.13477859599515796  0.6531464278232306  1.0000
  Sr  Sr2       1.0  0.9255486479378305  0.2745669693686068  0.9829153069294989  1.0000
  Cu  Cu1       1.0  0.32149285182822496  0.39435377926565707  0.5960032008588314  1.0000
  Cu  Cu2       1.0  0.6806917802896351  0.6289249388501048  0.7196177213918418  1.0000
  H   H1        1.0  0.33187882765196264  0.07378128706477582  0.32787158561404794  1.0000
  H   H2        1.0  0.6896927359048277  0.10675681312568486  0.764771131798625  1.0000
  H   H3        1.0  0.13688705954700708  0.32565790973603725  0.7942680306732655  1.0000
  H   H4        1.0  0.18725905194878578  0.6056631673127413  0.19175915094092488  1.0000
  H   H5        1.0  0.2640734859742224  0.22709862934425473  0.2222416892182082  1.0000
  H   H6        1.0  0.922065427643247  0.3386311689391732  0.34802556596696377  1.0000
  H   H7        1.0  0.7561367432354018  0.6740121878683567  0.36819165374618024  1.0000
  H   H8        1.0  0.7809553185943514  0.2903576109674759  0.12363727789488621  1.0000
  H   H9        1.0  0.6290370979113504  0.13599632494151592  0.07236975315026939  1.0000
  H   H10       1.0  0.20009266724810004  0.8082482325844467  0.6473522703163326  1.0000
  H   H11       1.0  0.8510522753931582  0.37932028342038393  0.698775862751063  1.0000
  H   H12       1.0  0.20609388523735106  0.06290196068584919  0.08623364567756653  1.0000
  O   O1        1.0  0.23350480804219842  0.8721590057830326  0.0840320223942399  1.0000
  O   O2        1.0  0.6786897745914757  0.3489028182812035  0.5998462438583374  1.0000
  O   O3        1.0  0.7400292456150055  0.8392137258197181  0.7772901601856574  1.0000
  O   O4        1.0  0.9277204675599933  0.611536141630495  0.12144807283766568  1.0000
  O   O5        1.0  0.1467786207795143  0.5970297961030155  0.1527853061706992  1.0000
  O   O6        1.0  0.062047035549767315  0.06193622341379523  0.4294058464583941  1.0000
  O   O7        1.0  0.58616381988395  0.31115422234870493  0.15826832239326905  1.0000
  O   O8        1.0  0.6984655460109934  0.09190090920310467  0.012688435497693717  1.0000
  O   O9        1.0  0.5203539918074966  0.542373460251838  0.43401771220669616  1.0000
  O   O10       1.0  0.040793251362629235  0.018699095817282796  0.012978137412574142  1.0000
data_image156
_chemical_formula_structural       Sr2Cu2H12O10
_chemical_formula_sum              "Sr2 Cu2 H12 O10"
_cell_length_a       6.296725
_cell_length_b       5.467378000000002
_cell_length_c       7.977295878227032
_cell_angle_alpha    72.20561901156641
_cell_angle_beta     90.0
_cell_angle_gamma    90.0

_space_group_name_H-M_alt    "P 1"
_space_group_IT_number       1

loop_
  _space_group_symop_operation_xyz
  'x, y, z'

loop_
  _atom_site_type_symbol
  _atom_site_label
  _atom_site_symmetry_multiplicity
  _atom_site_fract_x
  _atom_site_fract_y
  _atom_site_fract_z
  _atom_site_occupancy
  Sr  Sr1       1.0  0.6744693669024855  0.6893856967799366  0.18429928529076278  1.0000
  Sr  Sr2       1.0  0.6773291684221476  0.710024370579049  0.9535430783871561  1.0000
  Cu  Cu1       1.0  0.8187927323160693  0.41554042673669755  0.941697662405204  1.0000
  Cu  Cu2       1.0  0.5087215375388041  0.016868640668690205  0.12660593050532043  1.0000
  H   H1        1.0  0.8835117146372795  0.5974524726625532  0.8046201354591176  1.0000
  H   H2        1.0  0.20810448448173702  0.9139915747800842  0.8385055158287287  1.0000
  H   H3        1.0  0.2530573597177863  0.6763570308685303  0.22260693600401282  1.0000
  H   H4        1.0  0.9093138091266155  0.23825838789343834  0.2940196031704545  1.0000
  H   H5        1.0  0.5466208760626614  0.8347369292750955  0.8555790045065805  1.0000
  H   H6        1.0  0.15377564576920122  0.5371965146623552  0.0010232999920845032  1.0000
  H   H7        1.0  0.04370203672442585  0.564576624892652  0.6677612598286942  1.0000
  H   H8        1.0  0.5371986615937203  0.05313342419685796  0.23206209455383942  1.0000
  H   H9        1.0  0.012580291135236621  0.458554700948298  0.2378524417290464  1.0000
  H   H10       1.0  0.6514706546440721  0.20047226920723915  0.4538269597105682  1.0000
  H   H11       1.0  0.060253799660131335  0.08938826899975538  0.9237132119887974  1.0000
  H   H12       1.0  0.3194866464473307  0.6933217691257596  0.3380996100604534  1.0000
  O   O1        1.0  0.04981459636474028  0.09242581183207221  0.2989251436665654  1.0000
  O   O2        1.0  0.8629626077599823  0.7899529961869121  0.6385795162059367  1.0000
  O   O3        1.0  0.8035080609843135  0.4833204061142169  0.8119034187402576  1.0000
  O   O4        1.0  0.8328479253686965  0.5522496101038996  0.44404043979011476  1.0000
  O   O5        1.0  0.38473796483594924  0.8277716705342755  0.4379651505732909  1.0000
  O   O6        1.0  0.7156641015317291  0.8163463775999844  0.72260368935531  1.0000
  O   O7        1.0  0.7332794788526371  0.35155371064320207  0.6943116643451503  1.0000
  O   O8        1.0  0.9241778335126583  0.3913517101900652  0.6265953147085384  1.0000
  O   O9        1.0  0.37025817757239565  0.5874167250003666  0.36420596551761264  1.0000
  O   O10       1.0  0.29541236243676394  0.8843263171147555  0.21471911057597026  1.0000
data_image157
_chemical_formula_structural       Sr2Cu2H12O10
_chemical_formula_sum              "Sr2 Cu2 H12 O10"
_cell_length_a       6.296725
_cell_length_b       5.467378000000002
_cell_length_c       7.977295878227032
_cell_angle_alpha    72.20561901156641
_cell_angle_beta     90.0
_cell_angle_gamma    90.0

_space_group_name_H-M_alt    "P 1"
_space_group_IT_number       1

loop_
  _space_group_symop_operation_xyz
  'x, y, z'

loop_
  _atom_site_type_symbol
  _atom_site_label
  _atom_site_symmetry_multiplicity
  _atom_site_fract_x
  _atom_site_fract_y
  _atom_site_fract_z
  _atom_site_occupancy
  Sr  Sr1       1.0  0.34598780085798353  0.6713340766727924  0.6928428350947797  1.0000
  Sr  Sr2       1.0  0.5815064188791439  0.8484104273375124  0.0035117415245622396  1.0000
  Cu  Cu1       1.0  0.7444800368975848  0.28871439094655216  0.02061109832720831  1.0000
  Cu  Cu2       1.0  0.10672185651492327  0.5845042103901505  0.5242264976259321  1.0000
  H   H1        1.0  0.38719861372374  0.652997509110719  0.9349812238942832  1.0000
  H   H2        1.0  0.24767908570356667  0.6981647682841867  0.4776235339231789  1.0000
  H   H3        1.0  0.2848138278350234  0.40689792297780514  0.30323984380811453  1.0000
  H   H4        1.0  0.031875405460596085  0.08025725372135639  0.0519070653244853  1.0000
  H   H5        1.0  0.22324696043506265  0.7652966324239969  0.33952275570482016  1.0000
  H   H6        1.0  0.8029180399607867  0.7887655510567129  0.4535271576605737  1.0000
  H   H7        1.0  0.45620061247609556  0.27452455181628466  0.899422346468782  1.0000
  H   H8        1.0  0.2996152378618717  0.9581129548023455  0.3802957686420996  1.0000
  H   H9        1.0  0.4346912212204188  0.4426438333466649  0.9187402310781181  1.0000
  H   H10       1.0  0.42735004471614957  0.8900269181467593  0.6327476887963712  1.0000
  H   H11       1.0  0.2299310031812638  0.24382368754595518  0.9593826550917584  1.0000
  H   H12       1.0  0.27333400677889585  0.10408859513700008  0.9457089025527239  1.0000
  O   O1        1.0  0.15419503673911095  0.16692793514812365  0.1569819034775719  1.0000
  O   O2        1.0  0.30113437632098794  0.5684007802046835  0.5265198431443423  1.0000
  O   O3        1.0  0.42881650221534073  0.5723360806587152  0.6498365012230352  1.0000
  O   O4        1.0  0.03363700141198933  0.14677312641288154  0.30589602747932076  1.0000
  O   O5        1.0  0.7537809384521097  0.04361741279717535  0.41243495720846113  1.0000
  O   O6        1.0  0.17930497089400887  0.8266671411693096  0.016259406285826117  1.0000
  O   O7        1.0  0.4677409483701922  0.10896786046214402  0.9752277325060277  1.0000
  O   O8        1.0  0.25908283270837273  0.7256732463138178  0.15539577952586114  1.0000
  O   O9        1.0  0.5663201094721444  0.588286462938413  0.3982895819062833  1.0000
  O   O10       1.0  0.8884941706201062  0.9392895076889545  0.6235470624524169  1.0000
data_image158
_chemical_formula_structural       Sr2Cu2H12O10
_chemical_formula_sum              "Sr2 Cu2 H12 O10"
_cell_length_a       6.296725
_cell_length_b       5.467378000000002
_cell_length_c       7.977295878227032
_cell_angle_alpha    72.20561901156641
_cell_angle_beta     90.0
_cell_angle_gamma    90.0

_space_group_name_H-M_alt    "P 1"
_space_group_IT_number       1

loop_
  _space_group_symop_operation_xyz
  'x, y, z'

loop_
  _atom_site_type_symbol
  _atom_site_label
  _atom_site_symmetry_multiplicity
  _atom_site_fract_x
  _atom_site_fract_y
  _atom_site_fract_z
  _atom_site_occupancy
  Sr  Sr1       1.0  0.796822325210087  0.11406683688983321  0.6825581649318337  1.0000
  Sr  Sr2       1.0  0.04915476485621184  0.7221350118052214  0.8446014509536326  1.0000
  Cu  Cu1       1.0  0.5165236605098471  0.5857981145381927  0.9977222663001157  1.0000
  Cu  Cu2       1.0  0.4893728495808318  0.797904547303915  0.2900872086174786  1.0000
  H   H1        1.0  0.8528255133423954  0.898389833047986  0.6333554653683677  1.0000
  H   H2        1.0  0.15542944660410285  0.47532688931096345  0.9418015815317631  1.0000
  H   H3        1.0  0.9836480505764484  0.08934687450528145  0.5982083450071514  1.0000
  H   H4        1.0  0.4694902952760458  0.4967707246541977  0.7680820981040597  1.0000
  H   H5        1.0  0.791910623665899  0.30005522444844246  0.47534115880262107  1.0000
  H   H6        1.0  0.5949384565465152  0.37076111044734716  0.5611671167425811  1.0000
  H   H7        1.0  0.23061093653086573  0.6656446335837245  0.27902570149649364  1.0000
  H   H8        1.0  0.8534888110589236  0.26792001468129456  0.22330779719050042  1.0000
  H   H9        1.0  0.16276099544484168  0.39324071491137147  0.7757491681259125  1.0000
  H   H10       1.0  0.1309640808030963  0.14905020222067833  0.5494745769537985  1.0000
  H   H11       1.0  0.23257023212499917  0.12986474484205246  0.8423122540625627  1.0000
  H   H12       1.0  0.8619438007008284  0.3839577026665211  0.6862007193267345  1.0000
  O   O1        1.0  0.5450503823230974  0.9887369604548439  0.843255819985643  1.0000
  O   O2        1.0  0.7397275366820395  0.09316513314843178  0.87535190442577  1.0000
  O   O3        1.0  0.3137913786340505  0.8668766103946837  0.3645152614917606  1.0000
  O   O4        1.0  0.03830726468004286  0.2058844912389759  0.2800333893392235  1.0000
  O   O5        1.0  0.891541724151466  0.8276259622070938  0.42223098841350293  1.0000
  O   O6        1.0  0.5904590354766697  0.45791182667016983  0.6020521343452856  1.0000
  O   O7        1.0  0.00962462299503386  0.2697020519990474  0.9648646864661714  1.0000
  O   O8        1.0  0.5713191808899865  0.6572194913169369  0.30910742993000895  1.0000
  O   O9        1.0  0.16467603974160738  0.709251633437816  0.7160184627064154  1.0000
  O   O10       1.0  0.618897618027404  0.9661648035980761  0.6455309493467212  1.0000
data_image159
_chemical_formula_structural       Sr2Cu2H12O10
_chemical_formula_sum              "Sr2 Cu2 H12 O10"
_cell_length_a       6.296725
_cell_length_b       5.467378000000002
_cell_length_c       7.977295878227032
_cell_angle_alpha    72.20561901156641
_cell_angle_beta     90.0
_cell_angle_gamma    90.0

_space_group_name_H-M_alt    "P 1"
_space_group_IT_number       1

loop_
  _space_group_symop_operation_xyz
  'x, y, z'

loop_
  _atom_site_type_symbol
  _atom_site_label
  _atom_site_symmetry_multiplicity
  _atom_site_fract_x
  _atom_site_fract_y
  _atom_site_fract_z
  _atom_site_occupancy
  Sr  Sr1       1.0  0.7003073192900047  0.4282924837898463  0.1649819838348776  1.0000
  Sr  Sr2       1.0  0.8061393194366246  0.6217917250469327  0.49672318750526756  1.0000
  Cu  Cu1       1.0  0.7665540382731706  0.5147100863978267  0.840554004535079  1.0000
  Cu  Cu2       1.0  0.1629827442811802  0.8198367576114833  0.23530450509861112  1.0000
  H   H1        1.0  0.511669292114675  0.19583131419494748  0.47661838470958173  1.0000
  H   H2        1.0  0.4682999858632684  0.3394926495384425  0.4481772379949689  1.0000
  H   H3        1.0  0.5221499232575297  0.6334537491202354  0.686057785525918  1.0000
  H   H4        1.0  0.4877037014812231  0.300381563603878  0.6550393709912896  1.0000
  H   H5        1.0  0.20378101663663983  0.4757354105822742  0.2960052352864295  1.0000
  H   H6        1.0  0.12689623283222318  0.3387922327965498  0.14008674630895257  1.0000
  H   H7        1.0  0.4989124780986458  0.48113352060317993  0.6737774231878575  1.0000
  H   H8        1.0  0.047024197643622756  0.3907056984025985  0.5468925360182766  1.0000
  H   H9        1.0  0.2005464204121381  0.857132303994149  0.11054975353181362  1.0000
  H   H10       1.0  0.6168298770207912  0.3676948151551187  0.3020728984847665  1.0000
  H   H11       1.0  0.7654645561706275  0.43617778923362494  0.6601125859815511  1.0000
  H   H12       1.0  0.03614512621425092  0.6108611896634102  0.21008411422371864  1.0000
  O   O1        1.0  0.9235951554146595  0.7199261389905587  0.4151267489651218  1.0000
  O   O2        1.0  0.4855750515125692  0.029815065674483776  0.39104760624468327  1.0000
  O   O3        1.0  0.0451752592343837  0.3012002468458377  0.23283576674293727  1.0000
  O   O4        1.0  0.05114816455170512  0.613635312882252  0.9760685099754483  1.0000
  O   O5        1.0  0.34239461849210784  0.550768174463883  0.28496592015289934  1.0000
  O   O6        1.0  0.42832349392119795  0.8351624719798565  0.5271764136850834  1.0000
  O   O7        1.0  0.5345656521967612  0.4238810143433511  0.8153869522648165  1.0000
  O   O8        1.0  0.9503203335334547  0.6644029668532312  0.810851100133732  1.0000
  O   O9        1.0  0.6928804849158041  0.006962514598853886  0.3752939159239759  1.0000
  O   O10       1.0  0.7991072440054268  0.9080044035799801  0.5862237376277335  1.0000
data_image160
_chemical_formula_structural       Sr2Cu2H12O10
_chemical_formula_sum              "Sr2 Cu2 H12 O10"
_cell_length_a       6.296725
_cell_length_b       5.467378000000002
_cell_length_c       7.977295878227032
_cell_angle_alpha    72.20561901156641
_cell_angle_beta     90.0
_cell_angle_gamma    90.0

_space_group_name_H-M_alt    "P 1"
_space_group_IT_number       1

loop_
  _space_group_symop_operation_xyz
  'x, y, z'

loop_
  _atom_site_type_symbol
  _atom_site_label
  _atom_site_symmetry_multiplicity
  _atom_site_fract_x
  _atom_site_fract_y
  _atom_site_fract_z
  _atom_site_occupancy
  Sr  Sr1       1.0  0.30402187700383365  0.048862768802791834  0.6438488434068859  1.0000
  Sr  Sr2       1.0  0.36895643803291023  0.6930496527347714  0.28408021258655936  1.0000
  Cu  Cu1       1.0  0.5866269837133586  0.4303105575963855  0.9311671746545471  1.0000
  Cu  Cu2       1.0  0.2975183355156332  0.39842281211167574  0.7277162817772478  1.0000
  H   H1        1.0  0.9450902591925114  0.252077178331092  0.7449381223414093  1.0000
  H   H2        1.0  0.7629762068390846  0.13988505024462938  0.5546254925429821  1.0000
  H   H3        1.0  0.07639252487570047  0.164544515311718  0.5629580072127283  1.0000
  H   H4        1.0  0.6619844362139702  0.9456786643713713  0.9438037029467523  1.0000
  H   H5        1.0  0.33698577666655183  0.3190650353208184  0.9219862647587433  1.0000
  H   H6        1.0  0.6673530892003328  0.09228961355984211  0.9203088195063174  1.0000
  H   H7        1.0  0.24234054586850107  0.1512371115386486  0.5556744140340015  1.0000
  H   H8        1.0  0.8392187310382724  0.06793187465518713  0.5047272954252549  1.0000
  H   H9        1.0  0.689664265839383  0.013136782683432102  0.4843903291039169  1.0000
  H   H10       1.0  0.7642909998539835  0.3116629314608872  0.0332547714933753  1.0000
  H   H11       1.0  0.19332808954641223  0.6682320814579725  0.5124981201661285  1.0000
  H   H12       1.0  0.7588479472324252  0.10454240534454584  0.5356715600937605  1.0000
  O   O1        1.0  0.7510266691097058  0.1664992006844841  0.9180874453159049  1.0000
  O   O2        1.0  0.1429824260994792  0.7083936729468405  0.8779990884941071  1.0000
  O   O3        1.0  0.4406325595919043  0.9982200774975354  0.10932523279916495  1.0000
  O   O4        1.0  0.08625275897793472  0.9138797901105136  0.5339357338380069  1.0000
  O   O5        1.0  0.6699203395983204  0.5648080030223355  0.7879575919869239  1.0000
  O   O6        1.0  0.711756861419417  0.22488609794527292  0.4038118764292449  1.0000
  O   O7        1.0  0.48422291554743424  0.567104349611327  0.7019701935932972  1.0000
  O   O8        1.0  0.8132258769619511  0.022774640703573823  0.4832441587932408  1.0000
  O   O9        1.0  0.47075872791174334  0.40490077051799744  0.3662695210441598  1.0000
  O   O10       1.0  0.7111205869587138  0.06660040002316236  0.12367611535592005  1.0000
data_image161
_chemical_formula_structural       Sr2Cu2H12O10
_chemical_formula_sum              "Sr2 Cu2 H12 O10"
_cell_length_a       6.296725
_cell_length_b       5.467378000000002
_cell_length_c       7.977295878227032
_cell_angle_alpha    72.20561901156641
_cell_angle_beta     90.0
_cell_angle_gamma    90.0

_space_group_name_H-M_alt    "P 1"
_space_group_IT_number       1

loop_
  _space_group_symop_operation_xyz
  'x, y, z'

loop_
  _atom_site_type_symbol
  _atom_site_label
  _atom_site_symmetry_multiplicity
  _atom_site_fract_x
  _atom_site_fract_y
  _atom_site_fract_z
  _atom_site_occupancy
  Sr  Sr1       1.0  0.8281011754879728  0.07899129739962518  0.21225512633100152  1.0000
  Sr  Sr2       1.0  0.6836432615527883  0.8354870029725134  0.5823885854333639  1.0000
  Cu  Cu1       1.0  0.3898778954753652  0.2201806886587292  0.7931018566596322  1.0000
  Cu  Cu2       1.0  0.44255896424874663  0.09927680157124996  0.17935182875953615  1.0000
  H   H1        1.0  0.7683709820266813  0.7526073777116835  0.7619609912508167  1.0000
  H   H2        1.0  0.35756632033735514  0.01334172859787941  0.31085706129670143  1.0000
  H   H3        1.0  0.41088439617305994  0.7395226825028658  0.4304683906957507  1.0000
  H   H4        1.0  0.32831368036568165  0.2619055174291134  0.6764070629142225  1.0000
  H   H5        1.0  0.6393419848755002  0.6221885671839118  0.012145567452535033  1.0000
  H   H6        1.0  0.8518301043659449  0.02647581696510315  0.5514144359622151  1.0000
  H   H7        1.0  0.3411000887863338  0.7044203327968717  0.8692944755894132  1.0000
  H   H8        1.0  0.4408303799573332  0.7538897831691429  0.8123448418045882  1.0000
  H   H9        1.0  0.17728575295768678  0.3057187972590327  0.04247910901904106  1.0000
  H   H10       1.0  0.9462859297636896  0.24962018989026546  0.8513775779865682  1.0000
  H   H11       1.0  0.6691162656061351  0.6169713400304317  0.9211483648541616  1.0000
  H   H12       1.0  0.8586498831864446  0.2624823236837983  0.1943475753068924  1.0000
  O   O1        1.0  0.7862910634721629  0.023701889818767086  0.935940166702494  1.0000
  O   O2        1.0  0.709061533678323  0.5302125927992165  0.5021878662519157  1.0000
  O   O3        1.0  0.008108133915811777  0.40108808486547787  0.9621152703184634  1.0000
  O   O4        1.0  0.5468513376545161  0.5624123189481907  0.05258241086266935  1.0000
  O   O5        1.0  0.5741655877209269  0.5618553553940728  0.2695911874216108  1.0000
  O   O6        1.0  0.10830969107337296  0.5441252621822059  0.8352781330468133  1.0000
  O   O7        1.0  0.5818212290178053  0.4307403131388128  0.533061252303014  1.0000
  O   O8        1.0  0.7342893677123357  0.11729798256419599  0.7136097889160737  1.0000
  O   O9        1.0  0.6734079809393734  0.3359151039039716  0.0526911307242699  1.0000
  O   O10       1.0  0.28224388509988785  0.3326903316192329  0.5132960767368786  1.0000
data_image162
_chemical_formula_structural       Sr2Cu2H12O10
_chemical_formula_sum              "Sr2 Cu2 H12 O10"
_cell_length_a       6.296725
_cell_length_b       5.467378000000002
_cell_length_c       7.977295878227032
_cell_angle_alpha    72.20561901156641
_cell_angle_beta     90.0
_cell_angle_gamma    90.0

_space_group_name_H-M_alt    "P 1"
_space_group_IT_number       1

loop_
  _space_group_symop_operation_xyz
  'x, y, z'

loop_
  _atom_site_type_symbol
  _atom_site_label
  _atom_site_symmetry_multiplicity
  _atom_site_fract_x
  _atom_site_fract_y
  _atom_site_fract_z
  _atom_site_occupancy
  Sr  Sr1       1.0  0.6869497797451913  0.13341496838256717  0.8295214660465717  1.0000
  Sr  Sr2       1.0  0.33142676879651845  0.5189249210525304  0.3051624436629936  1.0000
  Cu  Cu1       1.0  0.41051995719317347  0.7321056770160794  0.5937074273242615  1.0000
  Cu  Cu2       1.0  0.16278737457469106  0.5682908520102501  0.6681085845921189  1.0000
  H   H1        1.0  0.7479410115629435  0.8838636549189687  0.8455818686052226  1.0000
  H   H2        1.0  0.05551049951463938  0.7474773023277521  0.3617688794620335  1.0000
  H   H3        1.0  0.8984317537397146  0.8850495330989361  0.2621703273616731  1.0000
  H   H4        1.0  0.20629193261265755  0.7477777730673552  0.6631964454427361  1.0000
  H   H5        1.0  0.592452859506011  0.9611818878911436  0.04655408556573093  1.0000
  H   H6        1.0  0.5541285392828286  0.17970827221870422  0.9293551187729463  1.0000
  H   H7        1.0  0.7800436799880117  0.5101203927770257  0.010160087840631604  1.0000
  H   H8        1.0  0.06321104965172708  0.06487122643011389  0.4504796639084816  1.0000
  H   H9        1.0  0.1260534276952967  0.46179105853661895  0.18015232775360346  1.0000
  H   H10       1.0  0.2028767429292202  0.31793453032150865  0.7378444219939411  1.0000
  H   H11       1.0  0.7967833005823195  0.9690125193446875  0.34390656322648283  1.0000
  H   H12       1.0  0.3634637591894716  0.4232097156345844  0.4185165148228407  1.0000
  O   O1        1.0  0.9718585492810234  0.20217680191854015  0.1930328099988401  1.0000
  O   O2        1.0  0.9754051445052028  0.23065384570509195  0.04582476010546088  1.0000
  O   O3        1.0  0.9725517421029508  0.10478789051558124  0.28172223060391843  1.0000
  O   O4        1.0  0.7436638907529414  0.31068735133158043  0.48675880092196167  1.0000
  O   O5        1.0  0.5532485977746546  0.9493427099660039  0.5553731752243038  1.0000
  O   O6        1.0  0.1305309379240498  0.7533788518048823  0.4303745449287817  1.0000
  O   O7        1.0  0.9574095771531574  0.8056013479363173  0.578901223896537  1.0000
  O   O8        1.0  0.1342758478858741  0.5937264534877613  0.8146362723782659  1.0000
  O   O9        1.0  0.5325378760753665  0.05996455723652616  0.0032694537585484795  1.0000
  O   O10       1.0  0.8020336381159723  0.6550405255984515  0.15493346011498943  1.0000
data_image163
_chemical_formula_structural       Sr2Cu2H12O10
_chemical_formula_sum              "Sr2 Cu2 H12 O10"
_cell_length_a       6.296725
_cell_length_b       5.467378000000002
_cell_length_c       7.977295878227032
_cell_angle_alpha    72.20561901156641
_cell_angle_beta     90.0
_cell_angle_gamma    90.0

_space_group_name_H-M_alt    "P 1"
_space_group_IT_number       1

loop_
  _space_group_symop_operation_xyz
  'x, y, z'

loop_
  _atom_site_type_symbol
  _atom_site_label
  _atom_site_symmetry_multiplicity
  _atom_site_fract_x
  _atom_site_fract_y
  _atom_site_fract_z
  _atom_site_occupancy
  Sr  Sr1       1.0  0.8411213005892932  0.5781421069987118  0.8444527650717646  1.0000
  Sr  Sr2       1.0  0.08948948257602751  0.15552440285682678  0.24845032102894038  1.0000
  Cu  Cu1       1.0  0.6635161058511585  0.9330267398618162  0.7592084061470814  1.0000
  Cu  Cu2       1.0  0.20786159695126116  0.40714114671573043  0.6731352680362761  1.0000
  H   H1        1.0  0.3229618158657104  0.009090845938771963  0.008556670392863452  1.0000
  H   H2        1.0  0.8679779432713985  0.9213387062773108  0.9324170248582959  1.0000
  H   H3        1.0  0.4787648366764188  0.9749155025929213  0.6294936151243746  1.0000
  H   H4        1.0  0.2880258783698082  0.8245149962604046  0.3045340273529291  1.0000
  H   H5        1.0  0.1398057108744979  0.21757869143038988  0.6526725421426818  1.0000
  H   H6        1.0  0.8126009732950479  0.887751642614603  0.3567529006395489  1.0000
  H   H7        1.0  0.19916700362227857  0.3042671512812376  0.3785950931487605  1.0000
  H   H8        1.0  0.30791068146936595  0.14216989296255633  0.8971296020026784  1.0000
  H   H9        1.0  0.46329718199558556  0.38269094191491604  0.3695142320357263  1.0000
  H   H10       1.0  0.9877765278797597  0.8677935525774956  0.15392289590090513  1.0000
  H   H11       1.0  0.9101605988107622  0.29677611216902733  0.19811342988396063  1.0000
  H   H12       1.0  0.8828262172173709  0.36083040852099657  0.9830229450017214  1.0000
  O   O1        1.0  0.7168184458860196  0.948187074973248  0.8468187241815031  1.0000
  O   O2        1.0  0.31199392722919583  0.35803622798994184  0.300766192143783  1.0000
  O   O3        1.0  0.06869180896319449  0.06967751165211666  0.6986508859554306  1.0000
  O   O4        1.0  0.4211175129748881  0.8232786815788131  0.138224279275164  1.0000
  O   O5        1.0  0.5207667053909972  0.018915369641035795  0.801126983242284  1.0000
  O   O6        1.0  0.3672709313686937  0.9295611274428666  0.8894015041878447  1.0000
  O   O7        1.0  0.03460829990217462  0.11444898485206068  0.970309597432788  1.0000
  O   O8        1.0  0.17677367801661603  0.6904251426458359  0.2756904762936756  1.0000
  O   O9        1.0  0.7639437073958106  0.7627727555809543  0.36145036612288095  1.0000
  O   O10       1.0  0.2998264847556129  0.664674143306911  0.26804196112789214  1.0000
data_image164
_chemical_formula_structural       Sr2Cu2H12O10
_chemical_formula_sum              "Sr2 Cu2 H12 O10"
_cell_length_a       6.296725
_cell_length_b       5.467378000000002
_cell_length_c       7.977295878227032
_cell_angle_alpha    72.20561901156641
_cell_angle_beta     90.0
_cell_angle_gamma    90.0

_space_group_name_H-M_alt    "P 1"
_space_group_IT_number       1

loop_
  _space_group_symop_operation_xyz
  'x, y, z'

loop_
  _atom_site_type_symbol
  _atom_site_label
  _atom_site_symmetry_multiplicity
  _atom_site_fract_x
  _atom_site_fract_y
  _atom_site_fract_z
  _atom_site_occupancy
  Sr  Sr1       1.0  0.2617971678264439  0.5393792346585542  0.18113097874447703  1.0000
  Sr  Sr2       1.0  0.7828781824791804  0.1366685873363167  0.11837964470032603  1.0000
  Cu  Cu1       1.0  0.265315736993216  0.3322938336059451  0.29023224831325933  1.0000
  Cu  Cu2       1.0  0.005323887336999178  0.9248180077411234  0.27114017703570426  1.0000
  H   H1        1.0  0.027360089821740985  0.7084636436775327  0.12081990478327498  1.0000
  H   H2        1.0  0.23154117353260517  0.9678274178877473  0.43651079246774316  1.0000
  H   H3        1.0  0.8045766577124596  0.3821529820561409  0.4910291372798383  1.0000
  H   H4        1.0  0.35240701772272587  0.7417455073446035  0.4764917092397809  1.0000
  H   H5        1.0  0.5612733489833772  0.3238799385726452  0.37028909544460475  1.0000
  H   H6        1.0  0.14742336561903358  0.6445094235241413  0.09995039459317923  1.0000
  H   H7        1.0  0.22876254725269973  0.6398908700793982  0.6482102420413867  1.0000
  H   H8        1.0  0.061967473244294524  0.02875148995372001  0.4144700540055055  1.0000
  H   H9        1.0  0.47049313434399664  0.8328797179274261  0.7461765380576253  1.0000
  H   H10       1.0  0.1596929719671607  0.018766643945127726  0.8821492097340524  1.0000
  H   H11       1.0  0.7626691265031695  0.48565545212477446  0.005860408680746332  1.0000
  H   H12       1.0  0.04916724213398993  0.21606510318815708  0.31878935918211937  1.0000
  O   O1        1.0  0.3849939400679432  0.4878536034957506  0.40415550535544753  1.0000
  O   O2        1.0  0.8647711216472089  0.7333978801034391  0.5327087417244911  1.0000
  O   O3        1.0  0.7195436877664179  0.5158259159288718  0.7884536634664983  1.0000
  O   O4        1.0  0.35347547475248575  0.3912960016459692  0.1076949923299253  1.0000
  O   O5        1.0  0.11002608190756291  0.8014229018008336  0.8690704269538401  1.0000
  O   O6        1.0  0.8405374254798517  0.4265137603506446  0.19256893987767398  1.0000
  O   O7        1.0  0.025362114247400314  0.32308082981035113  0.11858873429446248  1.0000
  O   O8        1.0  0.9756571970501682  0.014009083737619221  0.47444927087053657  1.0000
  O   O9        1.0  0.5262473883922212  0.23856010648887604  0.8762922019523103  1.0000
  O   O10       1.0  0.3083748520584777  0.08589722053147852  0.2480365764349699  1.0000
data_image165
_chemical_formula_structural       Sr2Cu2H12O10
_chemical_formula_sum              "Sr2 Cu2 H12 O10"
_cell_length_a       6.296725
_cell_length_b       5.467378000000002
_cell_length_c       7.977295878227032
_cell_angle_alpha    72.20561901156641
_cell_angle_beta     90.0
_cell_angle_gamma    90.0

_space_group_name_H-M_alt    "P 1"
_space_group_IT_number       1

loop_
  _space_group_symop_operation_xyz
  'x, y, z'

loop_
  _atom_site_type_symbol
  _atom_site_label
  _atom_site_symmetry_multiplicity
  _atom_site_fract_x
  _atom_site_fract_y
  _atom_site_fract_z
  _atom_site_occupancy
  Sr  Sr1       1.0  0.2683475660160184  0.7619364149868488  0.15579807991161942  1.0000
  Sr  Sr2       1.0  0.6788908024318516  0.18050293601118028  0.7919575400883332  1.0000
  Cu  Cu1       1.0  0.8244277002522722  0.03062849584966898  0.8519636366399936  1.0000
  Cu  Cu2       1.0  0.5103714298456907  0.3594309538602829  0.47673604101873934  1.0000
  H   H1        1.0  0.20981804747134447  0.5270909985993057  0.9387381282867864  1.0000
  H   H2        1.0  0.7408612556755543  0.22777102515101433  0.08260401105508208  1.0000
  H   H3        1.0  0.1082269474864006  0.45643647015094757  0.10442492738366127  1.0000
  H   H4        1.0  0.9399704411625862  0.31528734788298607  0.6891054157167673  1.0000
  H   H5        1.0  0.9645816837437451  0.6070300317369401  0.9805390775436535  1.0000
  H   H6        1.0  0.8267791459802538  0.9069832563400269  0.13042318262159824  1.0000
  H   H7        1.0  0.8589159292168915  0.9728117845952511  0.2591888952301815  1.0000
  H   H8        1.0  0.5057999496348202  0.3635652121156454  0.39244687583413906  1.0000
  H   H9        1.0  0.7392192432889715  0.5596851822920144  0.2526527955196798  1.0000
  H   H10       1.0  0.5666034752503037  0.26229670690372586  0.7203465369530022  1.0000
  H   H11       1.0  0.17541859671473503  0.9263714887201786  0.7013461677433952  1.0000
  H   H12       1.0  0.8521199889946729  0.018132537603378296  0.9074692372232676  1.0000
  O   O1        1.0  0.27783947333227843  0.2608698649564758  0.12506635673344135  1.0000
  O   O2        1.0  0.6694206800311804  0.4452302479185164  0.39229742204770446  1.0000
  O   O3        1.0  0.31812799512408674  0.6049235813043197  0.8798839113442227  1.0000
  O   O4        1.0  0.7565971072763205  0.7435000332188793  0.7080821238923818  1.0000
  O   O5        1.0  0.28286282130284235  0.21299083589110523  0.8391386556977523  1.0000
  O   O6        1.0  0.3836007018107921  0.0988992820493877  0.8214092934504151  1.0000
  O   O7        1.0  0.771030587668065  0.24804376438260078  0.9361966814685729  1.0000
  O   O8        1.0  0.04646008726558648  0.513806042028591  0.4878223002888262  1.0000
  O   O9        1.0  0.8770001017546747  0.8313931131269783  0.4969171379652835  1.0000
  O   O10       1.0  0.46914301777724177  0.14278989238664508  0.3645723991212435  1.0000
data_image166
_chemical_formula_structural       Sr2Cu2H12O10
_chemical_formula_sum              "Sr2 Cu2 H12 O10"
_cell_length_a       6.296725
_cell_length_b       5.467378000000002
_cell_length_c       7.977295878227032
_cell_angle_alpha    72.20561901156641
_cell_angle_beta     90.0
_cell_angle_gamma    90.0

_space_group_name_H-M_alt    "P 1"
_space_group_IT_number       1

loop_
  _space_group_symop_operation_xyz
  'x, y, z'

loop_
  _atom_site_type_symbol
  _atom_site_label
  _atom_site_symmetry_multiplicity
  _atom_site_fract_x
  _atom_site_fract_y
  _atom_site_fract_z
  _atom_site_occupancy
  Sr  Sr1       1.0  0.6622390141710639  0.7374983967747539  0.8625000061001629  1.0000
  Sr  Sr2       1.0  0.939568342990242  0.13292088662274182  0.7988924946403131  1.0000
  Cu  Cu1       1.0  0.15446255344431847  0.8368554003536701  0.40377540135523304  1.0000
  Cu  Cu2       1.0  0.08427955652587116  0.8441289309412241  0.518142961896956  1.0000
  H   H1        1.0  0.7381618502549827  0.9011739520356059  0.2313935072743334  1.0000
  H   H2        1.0  0.9210385577753186  0.4269268326461315  0.09925621282309294  1.0000
  H   H3        1.0  0.5560146998614073  0.8947057407349348  0.5276401094160974  1.0000
  H   H4        1.0  0.7018448635935783  0.6733761634677649  0.7477159383706748  1.0000
  H   H5        1.0  0.0560952159576118  0.7587972055189312  0.521847145515494  1.0000
  H   H6        1.0  0.17884839186444879  0.8594988957047462  0.23450004938058555  1.0000
  H   H7        1.0  0.6784950157161802  0.11086255311965942  0.34067836962640285  1.0000
  H   H8        1.0  0.16101873782463372  0.9631548713805387  0.774907398968935  1.0000
  H   H9        1.0  0.6967830627691001  0.28474318934604526  0.36852834513410926  1.0000
  H   H10       1.0  0.7178156906738877  0.21011392446234822  0.10383695643395185  1.0000
  H   H11       1.0  0.26968294102698565  0.0713044386357069  0.0866023994749412  1.0000
  H   H12       1.0  0.0034528288524597883  0.03162874560803175  0.04279344715178013  1.0000
  O   O1        1.0  0.6192795126116835  0.4967782903695479  0.818428460159339  1.0000
  O   O2        1.0  0.2821490466594696  0.21635788911953568  0.08615711145102978  1.0000
  O   O3        1.0  0.22014233632944524  0.8678113323985599  0.44182040181476623  1.0000
  O   O4        1.0  0.8373136671725661  0.8921636108134408  0.03374257986433804  1.0000
  O   O5        1.0  0.30497573234606534  0.1623184911441058  0.24903797300794395  1.0000
  O   O6        1.0  0.1799922355567105  0.7692587254568934  0.8042871390935034  1.0000
  O   O7        1.0  0.06085462830378674  0.3452589379157871  0.20656039266759763  1.0000
  O   O8        1.0  0.03462388187472243  0.8692619788926095  0.1495259664952755  1.0000
  O   O9        1.0  0.7294331779703498  0.26703485334292054  0.5658313676540274  1.0000
  O   O10       1.0  0.7815616517327726  0.8772595742484555  0.3278701988165267  1.0000
data_image167
_chemical_formula_structural       Sr2Cu2H12O10
_chemical_formula_sum              "Sr2 Cu2 H12 O10"
_cell_length_a       6.296725
_cell_length_b       5.467378000000002
_cell_length_c       7.977295878227032
_cell_angle_alpha    72.20561901156641
_cell_angle_beta     90.0
_cell_angle_gamma    90.0

_space_group_name_H-M_alt    "P 1"
_space_group_IT_number       1

loop_
  _space_group_symop_operation_xyz
  'x, y, z'

loop_
  _atom_site_type_symbol
  _atom_site_label
  _atom_site_symmetry_multiplicity
  _atom_site_fract_x
  _atom_site_fract_y
  _atom_site_fract_z
  _atom_site_occupancy
  Sr  Sr1       1.0  0.6970084449276328  0.6908502939622849  0.5458036556374282  1.0000
  Sr  Sr2       1.0  0.21227733010891825  0.24564021662808955  0.12239546864293516  1.0000
  Cu  Cu1       1.0  0.8990034017479047  0.7420273591997102  0.30285802751313895  1.0000
  Cu  Cu2       1.0  0.7808110872283578  0.5428450587205589  0.29191488516516984  1.0000
  H   H1        1.0  0.6241174358874559  0.5177986992057413  0.4466342477244325  1.0000
  H   H2        1.0  0.3381787547841668  0.4593088682740927  0.9991322136484087  1.0000
  H   H3        1.0  0.9078047424554825  0.991016112267971  0.6001063100993633  1.0000
  H   H4        1.0  0.8590503670275211  0.1322821695357561  0.5701256887987256  1.0000
  H   H5        1.0  0.9833332225680351  0.17966510821133852  0.016840356634929776  1.0000
  H   H6        1.0  0.2423538127914071  0.4468477740883827  0.7664403801318258  1.0000
  H   H7        1.0  0.9716086771804839  0.71982342004776  0.4263629737542942  1.0000
  H   H8        1.0  0.12540256581269205  0.8153100076306146  0.9849699565384071  1.0000
  H   H9        1.0  0.24342920631170273  0.9628014634363353  0.08821964077651501  1.0000
  H   H10       1.0  0.39320597681216896  0.6737138936296105  0.4743668371811509  1.0000
  H   H11       1.0  0.6272817614953965  0.8756215358152986  0.3988633819972165  1.0000
  H   H12       1.0  0.9808223969303071  0.3616576474159956  0.09304535016417503  1.0000
  O   O1        1.0  0.9176577382022515  0.6633680051309057  0.07419436797499657  1.0000
  O   O2        1.0  0.1537340241484344  0.7434446308761835  0.763396096881479  1.0000
  O   O3        1.0  0.5473861116915941  0.43539789279020624  0.8543433271115646  1.0000
  O   O4        1.0  0.14123256178572774  0.8891557767055929  0.6454512292984873  1.0000
  O   O5        1.0  0.6503504641586915  0.5295661630807444  0.6916583712954889  1.0000
  O   O6        1.0  0.8308113848906942  0.9337304541841149  0.1792381433187984  1.0000
  O   O7        1.0  0.7794616253813729  0.575650887330994  0.25786813779268414  1.0000
  O   O8        1.0  0.7959537420247216  0.22217571106739342  0.9429386630654335  1.0000
  O   O9        1.0  0.4032689689192921  0.4151857211254537  0.8633384819695493  1.0000
  O   O10       1.0  0.6879523905226961  0.8522684950148687  0.9037888169405051  1.0000
data_image168
_chemical_formula_structural       Sr2Cu2H12O10
_chemical_formula_sum              "Sr2 Cu2 H12 O10"
_cell_length_a       6.296725
_cell_length_b       5.467378000000002
_cell_length_c       7.977295878227032
_cell_angle_alpha    72.20561901156641
_cell_angle_beta     90.0
_cell_angle_gamma    90.0

_space_group_name_H-M_alt    "P 1"
_space_group_IT_number       1

loop_
  _space_group_symop_operation_xyz
  'x, y, z'

loop_
  _atom_site_type_symbol
  _atom_site_label
  _atom_site_symmetry_multiplicity
  _atom_site_fract_x
  _atom_site_fract_y
  _atom_site_fract_z
  _atom_site_occupancy
  Sr  Sr1       1.0  0.4585196883417666  0.0765595892444253  0.061249508522450924  1.0000
  Sr  Sr2       1.0  0.5997736089630052  0.7784767386037856  0.12520221923477948  1.0000
  Cu  Cu1       1.0  0.699187058256939  0.2501330052036792  0.6617302925442345  1.0000
  Cu  Cu2       1.0  0.4774226355366409  0.7923686276189983  0.8775307091418654  1.0000
  H   H1        1.0  0.5597526205237955  0.3127453790511936  0.5729397379909642  1.0000
  H   H2        1.0  0.6502464357763529  0.7304943613708019  0.8016351358965039  1.0000
  H   H3        1.0  0.016402509063482285  0.18893763981759548  0.45923775527626276  1.0000
  H   H4        1.0  0.9578393492847681  0.616283118724823  0.8566338242962956  1.0000
  H   H5        1.0  0.6902478300035  0.3287955317646265  0.02010568359401077  1.0000
  H   H6        1.0  0.8534728733357042  0.9141977019608021  0.009046212595421821  1.0000
  H   H7        1.0  0.5349147319793701  0.7334310058504343  0.08934370533097535  1.0000
  H   H8        1.0  0.808084839489311  0.7408736452343874  0.44652923877583817  1.0000
  H   H9        1.0  0.5633038837695494  0.31886384915560484  0.5757557237520814  1.0000
  H   H10       1.0  0.1506318470928818  0.6166543788276613  0.9858673377893865  1.0000
  H   H11       1.0  0.8046279235277325  0.37199120689183474  0.3412935517844744  1.0000
  H   H12       1.0  0.7085698950104415  0.28033526334911585  0.17640487104654312  1.0000
  O   O1        1.0  0.29477022821083665  0.7593846955569461  0.812519809580408  1.0000
  O   O2        1.0  0.6885598110966384  0.2692873836494982  0.323585850186646  1.0000
  O   O3        1.0  0.3605937920510769  0.22014190685149515  0.5587294300785288  1.0000
  O   O4        1.0  0.377979330252856  0.3846469011041336  0.7811227363999933  1.0000
  O   O5        1.0  0.1923656674916856  0.34672255779150873  0.5470554969724617  1.0000
  O   O6        1.0  0.8244986664503813  0.014869578182697296  0.1670951092382893  1.0000
  O   O7        1.0  0.13732402454479598  0.432694562477991  0.7062691928003915  1.0000
  O   O8        1.0  0.02930922967789229  0.40394255018327385  0.5925843103323132  1.0000
  O   O9        1.0  0.29531779512763023  0.192602846538648  0.31504181631316897  1.0000
  O   O10       1.0  0.8197028747526929  0.9129695021547377  0.6576904252287932  1.0000
data_image169
_chemical_formula_structural       Sr2Cu2H12O10
_chemical_formula_sum              "Sr2 Cu2 H12 O10"
_cell_length_a       6.296725
_cell_length_b       5.467378000000002
_cell_length_c       7.977295878227032
_cell_angle_alpha    72.20561901156641
_cell_angle_beta     90.0
_cell_angle_gamma    90.0

_space_group_name_H-M_alt    "P 1"
_space_group_IT_number       1

loop_
  _space_group_symop_operation_xyz
  'x, y, z'

loop_
  _atom_site_type_symbol
  _atom_site_label
  _atom_site_symmetry_multiplicity
  _atom_site_fract_x
  _atom_site_fract_y
  _atom_site_fract_z
  _atom_site_occupancy
  Sr  Sr1       1.0  0.2489544756244868  0.7433163486421108  0.10085708694532514  1.0000
  Sr  Sr2       1.0  0.6923577026464045  0.15138244116678834  0.30418452771846205  1.0000
  Cu  Cu1       1.0  0.45707249641418457  0.9336014589061961  0.562270806520246  1.0000
  Cu  Cu2       1.0  0.6624182004015893  0.6809261464513838  0.09025568794459105  1.0000
  H   H1        1.0  0.946046750061214  0.8943226763512939  0.38468097592704  1.0000
  H   H2        1.0  0.4500775448977947  0.3906143233180046  0.29168805480003357  1.0000
  H   H3        1.0  0.98531639482826  0.04924941249191761  0.02729459758847952  1.0000
  H   H4        1.0  0.14985196106135845  0.09978200308978558  0.3494489756412804  1.0000
  H   H5        1.0  0.6086505758576095  0.40588188264518976  0.5327051724307239  1.0000
  H   H6        1.0  0.9782409803010523  0.8579516932368279  0.16821308067301288  1.0000
  H   H7        1.0  0.6377095151692629  0.622816857881844  0.3439395109890029  1.0000
  H   H8        1.0  0.40325729665346444  0.5474454659852199  0.30205668005510233  1.0000
  H   H9        1.0  0.877419427386485  0.5366257606074214  0.3288796436972916  1.0000
  H   H10       1.0  0.4805840118788183  0.49446896463632584  0.49554180167615414  1.0000
  H   H11       1.0  0.8777272442821413  0.3985979622229934  0.6409203705843538  1.0000
  H   H12       1.0  0.2429811640176922  0.5592441782355309  0.025322938337922096  1.0000
  O   O1        1.0  0.9054592088796198  0.025035886908881366  0.8985217662993819  1.0000
  O   O2        1.0  0.5602810652926564  0.49874448124319315  0.31596242007799447  1.0000
  O   O3        1.0  0.020789431408047676  0.4888568525129813  0.47599622362758964  1.0000
  O   O4        1.0  0.6309537861961871  0.7420303118415177  0.6853428678587079  1.0000
  O   O5        1.0  0.6805816700798459  0.22389283822849393  0.7590829444743576  1.0000
  O   O6        1.0  0.9167866017087363  0.032118520233780146  0.19006800052011386  1.0000
  O   O7        1.0  0.06671657084370963  0.8372359633212909  0.15453169186366722  1.0000
  O   O8        1.0  0.8625943648366956  0.883945892448537  0.8325755064142868  1.0000
  O   O9        1.0  0.5958012443734333  0.4959822800010443  0.3134651456057327  1.0000
  O   O10       1.0  0.6719391206279397  0.43399402662180364  0.9307165449135937  1.0000
data_image170
_chemical_formula_structural       Sr2Cu2H12O10
_chemical_formula_sum              "Sr2 Cu2 H12 O10"
_cell_length_a       6.296725
_cell_length_b       5.467378000000002
_cell_length_c       7.977295878227032
_cell_angle_alpha    72.20561901156641
_cell_angle_beta     90.0
_cell_angle_gamma    90.0

_space_group_name_H-M_alt    "P 1"
_space_group_IT_number       1

loop_
  _space_group_symop_operation_xyz
  'x, y, z'

loop_
  _atom_site_type_symbol
  _atom_site_label
  _atom_site_symmetry_multiplicity
  _atom_site_fract_x
  _atom_site_fract_y
  _atom_site_fract_z
  _atom_site_occupancy
  Sr  Sr1       1.0  0.5889393831603229  0.7639232140500098  0.4669732269831002  1.0000
  Sr  Sr2       1.0  0.04924134281463921  0.3834010015707463  0.6516923098824918  1.0000
  Cu  Cu1       1.0  0.26358373160474  0.6007245982764289  0.18567081133369356  1.0000
  Cu  Cu2       1.0  0.3235087883658707  0.7419624829199165  0.7111217682249844  1.0000
  H   H1        1.0  0.4863871841225773  0.11639285506680608  0.9676008290771279  1.0000
  H   H2        1.0  0.573528503999114  0.6765459589660168  0.4933574781753123  1.0000
  H   H3        1.0  0.810149715282023  0.09722771495580673  0.38872503908351064  1.0000
  H   H4        1.0  0.141165841370821  0.28443517722189426  0.526971491985023  1.0000
  H   H5        1.0  0.06873701186850667  0.0028280355036258698  0.885368758928962  1.0000
  H   H6        1.0  0.08388939127326012  0.4131556414067745  0.7366944230161607  1.0000
  H   H7        1.0  0.4947375787887722  0.5592680852860212  0.7049080081051216  1.0000
  H   H8        1.0  0.8737744223326445  0.029706053901463747  0.7140270875534043  1.0000
  H   H9        1.0  0.006657601683400571  0.16215770412236452  0.27005392918363214  1.0000
  H   H10       1.0  0.14446170744486153  0.13311920454725623  0.13951285555958748  1.0000
  H   H11       1.0  0.2467843445483595  0.8933681473135948  0.8940128578105941  1.0000
  H   H12       1.0  0.10910207103006542  0.13187514059245586  0.5566501282155514  1.0000
  O   O1        1.0  0.948838583950419  0.08363049593754113  0.5869596783304587  1.0000
  O   O2        1.0  0.005462225526571274  0.43225113302469254  0.9647719019558281  1.0000
  O   O3        1.0  0.4801311588380486  0.9335460585862165  0.8203170401975513  1.0000
  O   O4        1.0  0.391861111856997  0.663461453455966  0.1277776099741459  1.0000
  O   O5        1.0  0.38055342057486996  0.07280219090171158  0.22100539181701606  1.0000
  O   O6        1.0  0.8431598607567139  0.8217344502918422  0.6560613316833042  1.0000
  O   O7        1.0  0.4325602143944707  0.980994108482264  0.6374867425329285  1.0000
  O   O8        1.0  0.2592187257250771  0.8615007352782413  0.7056709524476901  1.0000
  O   O9        1.0  0.503004839993082  0.29227819200605154  0.5789484966371674  1.0000
  O   O10       1.0  0.7958720322931185  0.9488819430116564  0.8546220220159739  1.0000
data_image171
_chemical_formula_structural       Sr2Cu2H12O10
_chemical_formula_sum              "Sr2 Cu2 H12 O10"
_cell_length_a       6.296725
_cell_length_b       5.467378000000002
_cell_length_c       7.977295878227032
_cell_angle_alpha    72.20561901156641
_cell_angle_beta     90.0
_cell_angle_gamma    90.0

_space_group_name_H-M_alt    "P 1"
_space_group_IT_number       1

loop_
  _space_group_symop_operation_xyz
  'x, y, z'

loop_
  _atom_site_type_symbol
  _atom_site_label
  _atom_site_symmetry_multiplicity
  _atom_site_fract_x
  _atom_site_fract_y
  _atom_site_fract_z
  _atom_site_occupancy
  Sr  Sr1       1.0  0.8794929699506611  0.6926806929986924  0.7357266414910555  1.0000
  Sr  Sr2       1.0  0.43528119288384914  0.9509982266463339  0.8133050089236349  1.0000
  Cu  Cu1       1.0  0.34274982707574964  0.4766254755668342  0.13093275297433138  1.0000
  Cu  Cu2       1.0  0.983854332996998  0.6485194482374936  0.9509727610275149  1.0000
  H   H1        1.0  0.5913900940795429  0.36871525226160884  0.4585848442220595  1.0000
  H   H2        1.0  0.09913648385554552  0.24396214727312326  0.6326923379674554  1.0000
  H   H3        1.0  0.7277386616915464  0.8964566290378571  0.7575837541371584  1.0000
  H   H4        1.0  0.1697631161659956  0.25441188737750053  0.3125050510279834  1.0000
  H   H5        1.0  0.9156795558519661  0.10051631089299917  0.572657163196709  1.0000
  H   H6        1.0  0.9819570146501064  0.4650524705648422  0.8708245598245412  1.0000
  H   H7        1.0  0.39944567857310176  0.11730917915701866  0.03804999962449074  1.0000
  H   H8        1.0  0.5743146429304034  0.41538779996335506  0.8794674868695438  1.0000
  H   H9        1.0  0.690294468193315  0.756904206238687  0.15995552390813828  1.0000
  H   H10       1.0  0.31065603881143034  0.09066720120608807  0.594874169677496  1.0000
  H   H11       1.0  0.07667751447297633  0.7516778167337179  0.20043889910448343  1.0000
  H   H12       1.0  0.6230554399080575  0.3063436271622777  0.5940998867154121  1.0000
  O   O1        1.0  0.7589669847511686  0.610495911736507  0.9572377223521471  1.0000
  O   O2        1.0  0.922385255806148  0.15432300232350826  0.9073928673751652  1.0000
  O   O3        1.0  0.17958056274801493  0.07662601422634907  0.7015760944923386  1.0000
  O   O4        1.0  0.24963922193273902  0.3720934769953601  0.3003127931151539  1.0000
  O   O5        1.0  0.006972224393393844  0.3799027173081413  0.0876871100444987  1.0000
  O   O6        1.0  0.5773932275478728  0.4830736229196191  0.0518654054030776  1.0000
  O   O7        1.0  0.8720797265705187  0.11021690152119845  0.2876673708524322  1.0000
  O   O8        1.0  0.34030613490904216  0.666545562678948  0.4857209342299029  1.0000
  O   O9        1.0  0.7742633826564997  0.4016322186216712  0.7065221475932049  1.0000
  O   O10       1.0  0.6489904028130695  0.617520279251039  0.04028568393550813  1.0000
data_image172
_chemical_formula_structural       Sr2Cu2H12O10
_chemical_formula_sum              "Sr2 Cu2 H12 O10"
_cell_length_a       6.296725
_cell_length_b       5.467378000000002
_cell_length_c       7.977295878227032
_cell_angle_alpha    72.20561901156641
_cell_angle_beta     90.0
_cell_angle_gamma    90.0

_space_group_name_H-M_alt    "P 1"
_space_group_IT_number       1

loop_
  _space_group_symop_operation_xyz
  'x, y, z'

loop_
  _atom_site_type_symbol
  _atom_site_label
  _atom_site_symmetry_multiplicity
  _atom_site_fract_x
  _atom_site_fract_y
  _atom_site_fract_z
  _atom_site_occupancy
  Sr  Sr1       1.0  0.6182105073239654  0.670385766075924  0.9910524080041796  1.0000
  Sr  Sr2       1.0  0.18407213175669312  0.7520973868668079  0.909620845457539  1.0000
  Cu  Cu1       1.0  0.4524201969616115  0.25496527878567576  0.5384290595538914  1.0000
  Cu  Cu2       1.0  0.31607054322375916  0.5404476665426046  0.12690603372175246  1.0000
  H   H1        1.0  0.34986128984746756  0.11337856575846672  0.8963078364031389  1.0000
  H   H2        1.0  0.004224029369652271  0.6036465344950557  0.27261153561994433  1.0000
  H   H3        1.0  0.6277050208300352  0.8962753154337406  0.5543257310055196  1.0000
  H   H4        1.0  0.7219622619450092  0.8047830015420914  0.6847073840908706  1.0000
  H   H5        1.0  0.17834361921995878  0.8103439169935882  0.9990940222050995  1.0000
  H   H6        1.0  0.5499155030120164  0.8561776280403137  0.2647022212622687  1.0000
  H   H7        1.0  0.3121164187323302  0.5249861432239413  0.9592503809835762  1.0000
  H   H8        1.0  0.8526814854703844  0.6189941889606416  0.030229136114940047  1.0000
  H   H9        1.0  0.01464717905037105  0.1633672257885337  0.48152080504223704  1.0000
  H   H10       1.0  0.809451364679262  0.5738069652579725  0.23078803857788444  1.0000
  H   H11       1.0  0.9149784882902168  0.6385908061638474  0.9529463629005477  1.0000
  H   H12       1.0  0.9445116822607815  0.5909399380907416  0.28985489904880524  1.0000
  O   O1        1.0  0.8359801196493208  0.6832854283857159  0.2167175152571872  1.0000
  O   O2        1.0  0.8235862911678851  0.5852636182680726  0.1502818767912686  1.0000
  O   O3        1.0  0.9941283429507166  0.7700039432529593  0.31817221106030047  1.0000
  O   O4        1.0  0.6572171556763351  0.03143528554937802  0.426129910396412  1.0000
  O   O5        1.0  0.2000774780754  0.2945313942618668  0.8424693253109581  1.0000
  O   O6        1.0  0.5841470395680517  0.6922779087908566  0.2662725286791101  1.0000
  O   O7        1.0  0.34547451659454964  0.06195785221643746  0.6265153793647187  1.0000
  O   O8        1.0  0.18479371275316225  0.26728421344887465  0.3497943264665082  1.0000
  O   O9        1.0  0.31351379316765815  0.5615507261827588  0.5022956645261729  1.0000
  O   O10       1.0  0.12546144286170602  0.6408176955301315  0.28767059464007616  1.0000
data_image173
_chemical_formula_structural       Sr2Cu2H12O10
_chemical_formula_sum              "Sr2 Cu2 H12 O10"
_cell_length_a       6.296725
_cell_length_b       5.467378000000002
_cell_length_c       7.977295878227032
_cell_angle_alpha    72.20561901156641
_cell_angle_beta     90.0
_cell_angle_gamma    90.0

_space_group_name_H-M_alt    "P 1"
_space_group_IT_number       1

loop_
  _space_group_symop_operation_xyz
  'x, y, z'

loop_
  _atom_site_type_symbol
  _atom_site_label
  _atom_site_symmetry_multiplicity
  _atom_site_fract_x
  _atom_site_fract_y
  _atom_site_fract_z
  _atom_site_occupancy
  Sr  Sr1       1.0  0.001708031864836812  0.14907340798527002  0.21743099833838642  1.0000
  Sr  Sr2       1.0  0.7552423849701881  0.19130630511790514  0.005435554543510079  1.0000
  Cu  Cu1       1.0  0.11593708908185363  0.39687498833518475  0.2872751065879129  1.0000
  Cu  Cu2       1.0  0.7623752269428223  0.25709336600266397  0.5446655685082078  1.0000
  H   H1        1.0  0.4259260239487048  0.13834551582112908  0.22121204025461338  1.0000
  H   H2        1.0  0.9002690613269806  0.4387223143130541  0.12325885100290179  1.0000
  H   H3        1.0  0.30425338447093964  0.8219626676291227  0.8485086718574166  1.0000
  H   H4        1.0  0.005054047331213951  0.4901289027184248  0.9213538230396807  1.0000
  H   H5        1.0  0.9219968770630658  0.9891092665493488  0.5194870195700787  1.0000
  H   H6        1.0  0.6675153747200966  0.16985195130109787  0.7654950229916722  1.0000
  H   H7        1.0  0.1929322681389749  0.6540090916678309  0.7310394044034183  1.0000
  H   H8        1.0  0.1702884929254651  0.45488606626167893  0.5985918412916362  1.0000
  H   H9        1.0  0.8153576276963577  0.8856383496895432  0.5493737705983222  1.0000
  H   H10       1.0  0.18602441856637597  0.6957335812039673  0.29590293345972896  1.0000
  H   H11       1.0  0.5169370398507454  0.20086445566266775  0.38183300965465605  1.0000
  H   H12       1.0  0.210887816734612  0.02553896140307188  0.16757339425384998  1.0000
  O   O1        1.0  0.05637705168919638  0.27086462371516973  0.7323642770061269  1.0000
  O   O2        1.0  0.6208345987834036  0.8444532570429146  0.1692939125932753  1.0000
  O   O3        1.0  0.3857193242292851  0.1472365657973569  0.2467363211326301  1.0000
  O   O4        1.0  0.32946939882822335  0.30360630329232663  0.8174804490990937  1.0000
  O   O5        1.0  0.2052293906453997  0.14108005817979574  0.07644697782234289  1.0000
  O   O6        1.0  0.5377632321906276  0.8106655022129416  0.25495301274349913  1.0000
  O   O7        1.0  0.20884450915036723  0.8065603823633865  0.012153054005466402  1.0000
  O   O8        1.0  0.2696687526513415  0.9524928174214438  0.6167588232783601  1.0000
  O   O9        1.0  0.3740023267455399  0.9314351307693869  0.07311043498339131  1.0000
  O   O10       1.0  0.5522317446302623  0.039086854085326195  0.27295310888439417  1.0000
data_image174
_chemical_formula_structural       Sr2Cu2H12O10
_chemical_formula_sum              "Sr2 Cu2 H12 O10"
_cell_length_a       6.296725
_cell_length_b       5.467378000000002
_cell_length_c       7.977295878227032
_cell_angle_alpha    72.20561901156641
_cell_angle_beta     90.0
_cell_angle_gamma    90.0

_space_group_name_H-M_alt    "P 1"
_space_group_IT_number       1

loop_
  _space_group_symop_operation_xyz
  'x, y, z'

loop_
  _atom_site_type_symbol
  _atom_site_label
  _atom_site_symmetry_multiplicity
  _atom_site_fract_x
  _atom_site_fract_y
  _atom_site_fract_z
  _atom_site_occupancy
  Sr  Sr1       1.0  0.11211965454276651  0.119848957285285  0.5096493288874626  1.0000
  Sr  Sr2       1.0  0.3259127992205322  0.724460550583899  0.20690841739997268  1.0000
  Cu  Cu1       1.0  0.1985997201409191  0.030017989687621593  0.5612816527136602  1.0000
  Cu  Cu2       1.0  0.639259742340073  0.9076449945569038  0.8834523761179298  1.0000
  H   H1        1.0  0.9570709751278628  0.6415301556698978  0.11812413495499641  1.0000
  H   H2        1.0  0.6293306583538651  0.8701440021395683  0.10866518365219235  1.0000
  H   H3        1.0  0.8439648887142539  0.30180455558001995  0.007250594440847635  1.0000
  H   H4        1.0  0.12414844334125519  0.21940531954169273  0.15361043298617005  1.0000
  H   H5        1.0  0.8427234441041946  0.38213961059227586  0.05038786969089415  1.0000
  H   H6        1.0  0.769046378787607  0.21703016757965088  0.052831706998404115  1.0000
  H   H7        1.0  0.1513537555001676  0.8560067964717746  0.1514995980542153  1.0000
  H   H8        1.0  0.7024266612716019  0.4487371761351824  0.1500871698372066  1.0000
  H   H9        1.0  0.6285168898757547  0.516003011725843  0.3405343648046255  1.0000
  H   H10       1.0  0.5437444420531392  0.6969702793285251  0.4472844931297004  1.0000
  H   H11       1.0  0.20231518166838214  0.04826589114964008  0.9268543414073065  1.0000
  H   H12       1.0  0.8415720753837377  0.4586365083232522  0.41046392917633057  1.0000
  O   O1        1.0  0.8198760054656304  0.878951168153435  0.16730053222272545  1.0000
  O   O2        1.0  0.08220497518777847  0.8566746939904988  0.3570510628633201  1.0000
  O   O3        1.0  0.008417282719165087  0.9584757339762291  0.015010555274784565  1.0000
  O   O4        1.0  0.7102022003382444  0.39025422208942473  0.6514481783378869  1.0000
  O   O5        1.0  0.005557968455832452  0.9058146940078586  0.5338086129959265  1.0000
  O   O6        1.0  0.2367252764524892  0.49527591140940785  0.4486700757406652  1.0000
  O   O7        1.0  0.8919036279257853  0.706028439803049  0.7340081548754824  1.0000
  O   O8        1.0  0.43329604175596614  0.024047474609687924  0.7003208647947758  1.0000
  O   O9        1.0  0.09519347077002749  0.10391280800104141  0.3991735501040239  1.0000
  O   O10       1.0  0.3694628307130188  0.10517447628080845  0.638343145721592  1.0000
data_image175
_chemical_formula_structural       Sr2Cu2H12O10
_chemical_formula_sum              "Sr2 Cu2 H12 O10"
_cell_length_a       6.296725
_cell_length_b       5.467378000000002
_cell_length_c       7.977295878227032
_cell_angle_alpha    72.20561901156641
_cell_angle_beta     90.0
_cell_angle_gamma    90.0

_space_group_name_H-M_alt    "P 1"
_space_group_IT_number       1

loop_
  _space_group_symop_operation_xyz
  'x, y, z'

loop_
  _atom_site_type_symbol
  _atom_site_label
  _atom_site_symmetry_multiplicity
  _atom_site_fract_x
  _atom_site_fract_y
  _atom_site_fract_z
  _atom_site_occupancy
  Sr  Sr1       1.0  0.19275344430934638  0.47414637450128794  0.25575842591933906  1.0000
  Sr  Sr2       1.0  0.7666653972119093  0.07059158571064472  0.17441437719389796  1.0000
  Cu  Cu1       1.0  0.7313318406231701  0.47404022980481386  0.9218116893898696  1.0000
  Cu  Cu2       1.0  0.1833992199972272  0.6607118034735322  0.09642106993123889  1.0000
  H   H1        1.0  0.304716053098673  0.11793395970016718  0.7183728561649332  1.0000
  H   H2        1.0  0.7898360174149275  0.963042207993567  0.9768932238221169  1.0000
  H   H3        1.0  0.7031218102201819  0.9419726356863976  0.7448986931703985  1.0000
  H   H4        1.0  0.8370371181517839  0.6035497281700373  0.3422573588322848  1.0000
  H   H5        1.0  0.21529523702338338  0.6022843788377941  0.188740321827936  1.0000
  H   H6        1.0  0.7511319499462843  0.8076432608067989  0.6313743854989298  1.0000
  H   H7        1.0  0.7860338306054473  0.5599664291366935  0.6216624004300684  1.0000
  H   H8        1.0  0.3028955003246665  0.43896774062886834  0.16342364344745874  1.0000
  H   H9        1.0  0.2508318414911628  0.7230997402220964  0.046499015763401985  1.0000
  H   H10       1.0  0.8298827039543539  0.05564149376004934  0.8801818615756929  1.0000
  H   H11       1.0  0.6801890953211114  0.4010414443910122  0.5897853447822854  1.0000
  H   H12       1.0  0.7653890200890601  0.48943443736061454  0.06698531657457352  1.0000
  O   O1        1.0  0.5889999665669166  0.7687327450257726  0.9290326362242922  1.0000
  O   O2        1.0  0.9169337409548461  0.8442731620743871  0.41977996891364455  1.0000
  O   O3        1.0  0.5588552590925246  0.5597955790581182  0.23154250299558043  1.0000
  O   O4        1.0  0.1177731656935066  0.8856837630737573  0.9551522242836654  1.0000
  O   O5        1.0  0.2390701042022556  0.7228398525621742  0.1451951289182034  1.0000
  O   O6        1.0  0.0921259694150649  0.27495935605838895  0.8653396039153449  1.0000
  O   O7        1.0  0.3716369229077827  0.030757284490391612  0.9058300147444243  1.0000
  O   O8        1.0  0.3969033289613435  0.21254687395412475  0.9158512849826366  1.0000
  O   O9        1.0  0.9624818415031768  0.6594263231381774  0.7126314374618232  1.0000
  O   O10       1.0  0.9126427947776392  0.8479397217743099  0.04665297828614712  1.0000
data_image176
_chemical_formula_structural       Sr2Cu2H12O10
_chemical_formula_sum              "Sr2 Cu2 H12 O10"
_cell_length_a       6.296725
_cell_length_b       5.467378000000002
_cell_length_c       7.977295878227032
_cell_angle_alpha    72.20561901156641
_cell_angle_beta     90.0
_cell_angle_gamma    90.0

_space_group_name_H-M_alt    "P 1"
_space_group_IT_number       1

loop_
  _space_group_symop_operation_xyz
  'x, y, z'

loop_
  _atom_site_type_symbol
  _atom_site_label
  _atom_site_symmetry_multiplicity
  _atom_site_fract_x
  _atom_site_fract_y
  _atom_site_fract_z
  _atom_site_occupancy
  Sr  Sr1       1.0  0.33483471372164786  0.023498243186622858  0.7985898286569864  1.0000
  Sr  Sr2       1.0  0.44983230344951153  0.6829342725686729  0.9877556159626693  1.0000
  Cu  Cu1       1.0  0.747724499553442  0.4059647270478308  0.18932063033571467  1.0000
  Cu  Cu2       1.0  0.449609340634197  0.8062312300316989  0.4673520210199058  1.0000
  H   H1        1.0  0.4566263143788092  0.07222141278907657  0.3767783096554922  1.0000
  H   H2        1.0  0.0382438600063324  0.9539226833730936  0.7565038669854403  1.0000
  H   H3        1.0  0.6708921631798148  0.05642075091600418  0.3489605006761849  1.0000
  H   H4        1.0  0.5502544213086367  0.05173050984740257  0.21649329736828804  1.0000
  H   H5        1.0  0.14016648894175887  0.35132872173562646  0.3451009051350411  1.0000
  H   H6        1.0  0.1472367299720645  0.03743862733244896  0.6993503361009061  1.0000
  H   H7        1.0  0.1796104572713375  0.6103946333751082  0.7701847229618579  1.0000
  H   H8        1.0  0.34484262904152274  0.5207153644878417  0.8623872962780297  1.0000
  H   H9        1.0  0.8461879568640143  0.3839620538055897  0.40661875531077385  1.0000
  H   H10       1.0  0.008790453430265188  0.08134038746356964  0.3847726145759225  1.0000
  H   H11       1.0  0.793340515694581  0.030117743648588657  0.14782177994493395  1.0000
  H   H12       1.0  0.2937304684892297  0.5633846437558532  0.7043805364519358  1.0000
  O   O1        1.0  0.12843600357882679  0.1778335286071524  0.4832370288204402  1.0000
  O   O2        1.0  0.7977938181720674  0.0397268645465374  0.023493599612265825  1.0000
  O   O3        1.0  0.3561137211509049  0.8180784035575925  0.1441047986736521  1.0000
  O   O4        1.0  0.4260713488329202  0.0768203511252068  0.7540798459667712  1.0000
  O   O5        1.0  0.730097652063705  0.056277984753251076  0.42791591626064474  1.0000
  O   O6        1.0  0.36103267478756607  0.5620024004019797  0.6564703888725489  1.0000
  O   O7        1.0  0.7924411109852372  0.8311555886175483  0.6579805487272097  1.0000
  O   O8        1.0  0.9152903277354199  0.7808506434084848  0.6524922280805185  1.0000
  O   O9        1.0  0.057377410936169326  0.24686334724538028  0.005198279512114823  1.0000
  O   O10       1.0  0.4986966842552647  0.12053519650362432  0.7316507722716779  1.0000
data_image177
_chemical_formula_structural       Sr2Cu2H12O10
_chemical_formula_sum              "Sr2 Cu2 H12 O10"
_cell_length_a       6.296725
_cell_length_b       5.467378000000002
_cell_length_c       7.977295878227032
_cell_angle_alpha    72.20561901156641
_cell_angle_beta     90.0
_cell_angle_gamma    90.0

_space_group_name_H-M_alt    "P 1"
_space_group_IT_number       1

loop_
  _space_group_symop_operation_xyz
  'x, y, z'

loop_
  _atom_site_type_symbol
  _atom_site_label
  _atom_site_symmetry_multiplicity
  _atom_site_fract_x
  _atom_site_fract_y
  _atom_site_fract_z
  _atom_site_occupancy
  Sr  Sr1       1.0  0.4652659330749884  0.7634764700196683  0.002738218056038022  1.0000
  Sr  Sr2       1.0  0.6106352754868567  0.2076646345667541  0.298479049699381  1.0000
  Cu  Cu1       1.0  0.3393418798223138  0.6293698512017727  0.5691899574594572  1.0000
  Cu  Cu2       1.0  0.08293881826102734  0.9098118753172457  0.31815046817064285  1.0000
  H   H1        1.0  0.8231968433246948  0.2445344547741115  0.1087148028309457  1.0000
  H   H2        1.0  0.26623347122222185  0.39574736589565873  0.3759164032526314  1.0000
  H   H3        1.0  0.8803539192304015  0.8452316522598267  0.5948610650375485  1.0000
  H   H4        1.0  0.41692654974758625  0.4739196039736271  0.8749242266640067  1.0000
  H   H5        1.0  0.9268803251907229  0.40836264565587044  0.8034387114894344  1.0000
  H   H6        1.0  0.915992941474542  0.9525859616696835  0.5000405065366067  1.0000
  H   H7        1.0  0.07995265978388488  0.04018575884401798  0.5469793220981956  1.0000
  H   H8        1.0  0.7216430362313986  0.15032933349721134  0.9100307112094015  1.0000
  H   H9        1.0  0.8886020870413631  0.5395677611231804  0.5952071165665984  1.0000
  H   H10       1.0  0.8928739947732538  0.6064654751680791  0.7998251435346901  1.0000
  H   H11       1.0  0.22897556162206456  0.8538089031353593  0.3753041841555387  1.0000
  H   H12       1.0  0.14361439924687147  0.054754617623984814  0.9456707611680031  1.0000
  O   O1        1.0  0.6210275435005315  0.13712714851135388  0.05376796890050173  1.0000
  O   O2        1.0  0.2885195608250797  0.9075175635516644  0.559076301753521  1.0000
  O   O3        1.0  0.03316948306746781  0.7706504491870874  0.7325258745113388  1.0000
  O   O4        1.0  0.7959502153098583  0.3469536569318734  0.16350267292000353  1.0000
  O   O5        1.0  0.07532898872159421  0.591028914321214  0.5517425211774025  1.0000
  O   O6        1.0  0.46447456144960597  0.5894185579381883  0.6646141464589164  1.0000
  O   O7        1.0  0.3983872609824175  0.5017524019349366  0.24106845728238113  1.0000
  O   O8        1.0  0.5914770556228177  0.5797976510366425  0.864219889510423  1.0000
  O   O9        1.0  0.21809524204581976  0.9082715385593474  0.6015161380637437  1.0000
  O   O10       1.0  0.5987894993741065  0.4295717440545559  0.6326566184870899  1.0000
data_image178
_chemical_formula_structural       Sr2Cu2H12O10
_chemical_formula_sum              "Sr2 Cu2 H12 O10"
_cell_length_a       6.296725
_cell_length_b       5.467378000000002
_cell_length_c       7.977295878227032
_cell_angle_alpha    72.20561901156641
_cell_angle_beta     90.0
_cell_angle_gamma    90.0

_space_group_name_H-M_alt    "P 1"
_space_group_IT_number       1

loop_
  _space_group_symop_operation_xyz
  'x, y, z'

loop_
  _atom_site_type_symbol
  _atom_site_label
  _atom_site_symmetry_multiplicity
  _atom_site_fract_x
  _atom_site_fract_y
  _atom_site_fract_z
  _atom_site_occupancy
  Sr  Sr1       1.0  0.893432054319419  0.04946234170347452  0.04233717662282288  1.0000
  Sr  Sr2       1.0  0.8062299666926265  0.641647417563945  0.11685180268250406  1.0000
  Cu  Cu1       1.0  0.5249725449830294  0.3489053947851062  0.2744960307027213  1.0000
  Cu  Cu2       1.0  0.853840580675751  0.5506875435821712  0.2782943507190794  1.0000
  H   H1        1.0  0.28883307782234624  0.19653288554400206  0.5009317032527179  1.0000
  H   H2        1.0  0.23172665294259787  0.8444770008791238  0.8388973255641758  1.0000
  H   H3        1.0  0.5469520385377109  0.6953940652310848  0.890367224579677  1.0000
  H   H4        1.0  0.8782904502004385  0.9675543997436762  0.26382876140996814  1.0000
  H   H5        1.0  0.3492128700017929  0.2515527168288827  0.6497152718220605  1.0000
  H   H6        1.0  0.8041913185734302  0.4361383281648159  0.10845744825201109  1.0000
  H   H7        1.0  0.6437704393174499  0.3490571090951562  0.2048805335070938  1.0000
  H   H8        1.0  0.6640002964995801  0.9688058560714126  0.717429484706372  1.0000
  H   H9        1.0  0.30421816441230476  0.6322331177070737  0.14026992302387953  1.0000
  H   H10       1.0  0.07600399712100625  0.5866444120183587  0.8693528692238033  1.0000
  H   H11       1.0  0.09402363671688363  0.8529733568429947  0.8167302506044507  1.0000
  H   H12       1.0  0.8593926397152245  0.9469198668375611  0.8512650988996029  1.0000
  O   O1        1.0  0.9603500402299687  0.0165263430099003  0.6416722681606188  1.0000
  O   O2        1.0  0.7120763016864657  0.6085732220672071  0.9745994384866208  1.0000
  O   O3        1.0  0.7170147085562348  0.2061204190540593  0.2782502416521311  1.0000
  O   O4        1.0  0.21712858020327985  0.7519575415644795  0.544070020550862  1.0000
  O   O5        1.0  0.7481645074440166  0.7416650768136606  0.05312639820340337  1.0000
  O   O6        1.0  0.9892606925277505  0.2737881257198751  0.28061692393384874  1.0000
  O   O7        1.0  0.34504757729155244  0.7899198095547035  0.47354729926155414  1.0000
  O   O8        1.0  0.42848903911726666  0.7693932456895709  0.4615554256597534  1.0000
  O   O9        1.0  0.0067244889214634895  0.33593534398823977  0.9014874421409331  1.0000
  O   O10       1.0  0.19296744419261813  0.9211276022251695  0.0019604364642873406  1.0000
data_image179
_chemical_formula_structural       Sr2Cu2H12O10
_chemical_formula_sum              "Sr2 Cu2 H12 O10"
_cell_length_a       6.296725
_cell_length_b       5.467378000000002
_cell_length_c       7.977295878227032
_cell_angle_alpha    72.20561901156641
_cell_angle_beta     90.0
_cell_angle_gamma    90.0

_space_group_name_H-M_alt    "P 1"
_space_group_IT_number       1

loop_
  _space_group_symop_operation_xyz
  'x, y, z'

loop_
  _atom_site_type_symbol
  _atom_site_label
  _atom_site_symmetry_multiplicity
  _atom_site_fract_x
  _atom_site_fract_y
  _atom_site_fract_z
  _atom_site_occupancy
  Sr  Sr1       1.0  0.08589629374910146  0.9926467058248818  0.555708369705826  1.0000
  Sr  Sr2       1.0  0.279393897857517  0.2352252220734954  0.07882483699359  1.0000
  Cu  Cu1       1.0  0.1164539537858218  0.4674852564930916  0.8970849104225636  1.0000
  Cu  Cu2       1.0  0.6421893441583961  0.1977390768006444  0.7035070485435426  1.0000
  H   H1        1.0  0.836727243498899  0.9178394144400954  0.04586439055856317  1.0000
  H   H2        1.0  0.012803386896848679  0.7499498447868973  0.8119640471413732  1.0000
  H   H3        1.0  0.8620346137322485  0.06700918078422546  0.37539830687455833  1.0000
  H   H4        1.0  0.6699324864894152  0.8817561864852905  0.20731406984850764  1.0000
  H   H5        1.0  0.7984604337252676  0.22937307739630342  0.5000124158104882  1.0000
  H   H6        1.0  0.9753079779911786  0.8542574606835842  0.4625628981302725  1.0000
  H   H7        1.0  0.5201913334894925  0.4894659137353301  0.01592196268029511  1.0000
  H   H8        1.0  0.20921243727207184  0.6868425931315869  0.8607128637377173  1.0000
  H   H9        1.0  0.4854965473059565  0.256566365249455  0.7564648049883544  1.0000
  H   H10       1.0  0.6336916107684374  0.8418229082599282  0.2267861703876406  1.0000
  H   H11       1.0  0.26177934650331736  0.7234083069488406  0.02647700917441398  1.0000
  H   H12       1.0  0.6055119447410107  0.8527522645890713  0.5755850095301867  1.0000
  O   O1        1.0  0.181949679274112  0.10787809633620782  0.33424478641245514  1.0000
  O   O2        1.0  0.6595801268704236  0.20250666933134198  0.9413006382528692  1.0000
  O   O3        1.0  0.06957787973806262  0.05329952413740102  0.738987835822627  1.0000
  O   O4        1.0  0.7428348015528172  0.27977217896841466  0.3087035052012652  1.0000
  O   O5        1.0  0.16777879552682862  0.19228820665739477  0.7703808034739268  1.0000
  O   O6        1.0  0.21067110876902007  0.5127596682868898  0.25087577052181587  1.0000
  O   O7        1.0  0.21299129341787193  0.9190120296552777  0.8196281020645984  1.0000
  O   O8        1.0  0.6106271713324531  0.4124387954361737  0.2745738800149411  1.0000
  O   O9        1.0  0.5901070144027472  0.6079089250415564  0.4502372629358433  1.0000
  O   O10       1.0  0.9805377493612468  0.9607196219731122  0.12128292524721473  1.0000
data_image180
_chemical_formula_structural       Sr2Cu2H12O10
_chemical_formula_sum              "Sr2 Cu2 H12 O10"
_cell_length_a       6.296725
_cell_length_b       5.467378000000002
_cell_length_c       7.977295878227032
_cell_angle_alpha    72.20561901156641
_cell_angle_beta     90.0
_cell_angle_gamma    90.0

_space_group_name_H-M_alt    "P 1"
_space_group_IT_number       1

loop_
  _space_group_symop_operation_xyz
  'x, y, z'

loop_
  _atom_site_type_symbol
  _atom_site_label
  _atom_site_symmetry_multiplicity
  _atom_site_fract_x
  _atom_site_fract_y
  _atom_site_fract_z
  _atom_site_occupancy
  Sr  Sr1       1.0  0.49439019709825516  0.6709904433228076  0.1330114179290831  1.0000
  Sr  Sr2       1.0  0.36935268761590123  0.6532261380925775  0.9111382523551583  1.0000
  Cu  Cu1       1.0  0.1459819774609059  0.28051996184512973  0.2691632966743782  1.0000
  Cu  Cu2       1.0  0.6899998219450936  0.94289037771523  0.8662876219023019  1.0000
  H   H1        1.0  0.45609896013047546  0.6311248680576682  0.7646061989944428  1.0000
  H   H2        1.0  0.1452860739082098  0.3654870488680899  0.43243193440139294  1.0000
  H   H3        1.0  0.948768766131252  0.6264182347804308  0.3197221029549837  1.0000
  H   H4        1.0  0.18203387968242168  0.8377664461731911  0.8217045529745519  1.0000
  H   H5        1.0  0.41333430260419846  0.5755705232731998  0.38218129469896667  1.0000
  H   H6        1.0  0.6282588066533208  0.4746464714407921  0.26333429046644596  1.0000
  H   H7        1.0  0.28144936030730605  0.03295235335826874  0.958167256321758  1.0000
  H   H8        1.0  0.23544157296419144  0.3088862765580416  0.3715025489218533  1.0000
  H   H9        1.0  0.18013033363968134  0.8937588538974524  0.4097347850911319  1.0000
  H   H10       1.0  0.04696863633580506  0.5108250021003187  0.8643174471799284  1.0000
  H   H11       1.0  0.01991915947292  0.5845511285588145  0.9733802434056997  1.0000
  H   H12       1.0  0.5728551694191992  0.8454025322571397  0.4311579391360283  1.0000
  O   O1        1.0  0.8468589496333152  0.24052683963964228  0.3852593582123518  1.0000
  O   O2        1.0  0.39377149334177375  0.8850716133601964  0.47311245487071574  1.0000
  O   O3        1.0  0.19453046726994216  0.36066395871239365  0.31463687797077  1.0000
  O   O4        1.0  0.3272465951740742  0.8081996837281622  0.6752020057756454  1.0000
  O   O5        1.0  0.7770358687848784  0.9127569063566625  0.8045910582404758  1.0000
  O   O6        1.0  0.048075406142743304  0.7544541708193719  0.9822425080346875  1.0000
  O   O7        1.0  0.20431545499013737  0.5016469213878736  0.3567481099162251  1.0000
  O   O8        1.0  0.33847503758079256  0.9380615330301225  0.8436954206554219  1.0000
  O   O9        1.0  0.6728217020863667  0.01042800978757441  0.24405326481792144  1.0000
  O   O10       1.0  0.9593898404855281  0.83705700840801  0.7839728923281655  1.0000
data_image181
_chemical_formula_structural       Sr2Cu2H12O10
_chemical_formula_sum              "Sr2 Cu2 H12 O10"
_cell_length_a       6.296725
_cell_length_b       5.467378000000002
_cell_length_c       7.977295878227032
_cell_angle_alpha    72.20561901156641
_cell_angle_beta     90.0
_cell_angle_gamma    90.0

_space_group_name_H-M_alt    "P 1"
_space_group_IT_number       1

loop_
  _space_group_symop_operation_xyz
  'x, y, z'

loop_
  _atom_site_type_symbol
  _atom_site_label
  _atom_site_symmetry_multiplicity
  _atom_site_fract_x
  _atom_site_fract_y
  _atom_site_fract_z
  _atom_site_occupancy
  Sr  Sr1       1.0  0.8684209799394011  0.8023529662750661  0.6498011481016874  1.0000
  Sr  Sr2       1.0  0.43485816568136215  0.9280667616985738  0.468763898126781  1.0000
  Cu  Cu1       1.0  0.2042959847021848  0.10609250608831644  0.18231720372568816  1.0000
  Cu  Cu2       1.0  0.1651999147143215  0.9278326062485576  0.843700188677758  1.0000
  H   H1        1.0  0.30487853614613414  0.30340050999075174  0.970239527116064  1.0000
  H   H2        1.0  0.7758627366274595  0.4807357336394489  0.6811930611729622  1.0000
  H   H3        1.0  0.6537986025214195  0.15332438983023167  0.1484953525941819  1.0000
  H   H4        1.0  0.5459419600665569  0.09811359643936157  0.3429400473833084  1.0000
  H   H5        1.0  0.2046491578221321  0.03237226465716958  0.6879012798890471  1.0000
  H   H6        1.0  0.7817138712853193  0.4667009897530079  0.19030292250681669  1.0000
  H   H7        1.0  0.8509270744398236  0.10825913213193417  0.29414245835505426  1.0000
  H   H8        1.0  0.852901735343039  0.8727719052694738  0.352908203843981  1.0000
  H   H9        1.0  0.40605038800276816  0.16648447792977095  0.9574570865370333  1.0000
  H   H10       1.0  0.77448317152448  0.01528595108538866  0.7272586009930819  1.0000
  H   H11       1.0  0.6117814292665571  0.8145378045737743  0.0856222992297262  1.0000
  H   H12       1.0  0.411412313580513  0.8082262128591537  0.2549815699458122  1.0000
  O   O1        1.0  0.18565533799119294  0.30268956846703077  0.963093402562663  1.0000
  O   O2        1.0  0.7917845142073929  0.8503192397765815  0.06170176761224866  1.0000
  O   O3        1.0  0.8162410361692309  0.11176366032123042  0.45501438388600945  1.0000
  O   O4        1.0  0.6339364519808441  0.6276304353086744  0.9839704586192966  1.0000
  O   O5        1.0  0.26877474592765793  0.5104926348431036  0.9886240168161748  1.0000
  O   O6        1.0  0.8303840628650505  0.35820288956165314  0.26731439132709056  1.0000
  O   O7        1.0  0.478565785135288  0.8581938185961917  0.6484695657563861  1.0000
  O   O8        1.0  0.5908665866118099  0.37189143581781536  0.5568515552440658  1.0000
  O   O9        1.0  0.3846424503135495  0.10133796650916338  0.3314355169713963  1.0000
  O   O10       1.0  0.7220345349051058  0.0769760028924793  0.7498326615896076  1.0000
data_image182
_chemical_formula_structural       Sr2Cu2H12O10
_chemical_formula_sum              "Sr2 Cu2 H12 O10"
_cell_length_a       6.296725
_cell_length_b       5.467378000000002
_cell_length_c       7.977295878227032
_cell_angle_alpha    72.20561901156641
_cell_angle_beta     90.0
_cell_angle_gamma    90.0

_space_group_name_H-M_alt    "P 1"
_space_group_IT_number       1

loop_
  _space_group_symop_operation_xyz
  'x, y, z'

loop_
  _atom_site_type_symbol
  _atom_site_label
  _atom_site_symmetry_multiplicity
  _atom_site_fract_x
  _atom_site_fract_y
  _atom_site_fract_z
  _atom_site_occupancy
  Sr  Sr1       1.0  0.2981995496666059  0.8553108137566596  0.27217223844490945  1.0000
  Sr  Sr2       1.0  0.32613708870485425  0.1505400580354035  0.7807263568975031  1.0000
  Cu  Cu1       1.0  0.2936731674708426  0.934517415240407  0.40302830951986834  1.0000
  Cu  Cu2       1.0  0.8112512158695608  0.9241271857172251  0.3961133409757167  1.0000
  H   H1        1.0  0.1026766249560751  0.11734358686953783  0.5944163028034382  1.0000
  H   H2        1.0  0.6373478751629591  0.27667960710823536  0.30270836129784584  1.0000
  H   H3        1.0  0.9194681979715824  0.4315774794667959  0.1875663052778691  1.0000
  H   H4        1.0  0.9500120580196381  0.5045145284384489  0.817788761574775  1.0000
  H   H5        1.0  0.9196846019476652  0.8066277862526476  0.21582168235909194  1.0000
  H   H6        1.0  0.15957029187120497  0.40624577924609184  0.9260710725211538  1.0000
  H   H7        1.0  0.28839419269934297  0.9572133710607886  0.39804611809086055  1.0000
  H   H8        1.0  0.22634099377319217  0.02068011276423931  0.08552927291020751  1.0000
  H   H9        1.0  0.29947823309339583  0.46233582217246294  0.028147397562861443  1.0000
  H   H10       1.0  0.8426244868896902  0.9288554261438549  0.03571742866188288  1.0000
  H   H11       1.0  0.20334092451957986  0.3743151528760791  0.2347575738094747  1.0000
  H   H12       1.0  0.866778009571135  0.09647347964346409  0.7489958666265011  1.0000
  O   O1        1.0  0.41365983488503844  0.5020294421774452  0.05397377337794751  1.0000
  O   O2        1.0  0.8076374442316592  0.16532872151583433  0.7378222967963666  1.0000
  O   O3        1.0  0.005108647979795933  0.4530137907267999  0.8343108789995313  1.0000
  O   O4        1.0  0.13735177065245807  0.48700446021393873  0.28561429399996996  1.0000
  O   O5        1.0  0.267730638734065  0.46806293178815395  0.895130621149292  1.0000
  O   O6        1.0  0.9698931016318966  0.27058607153594494  0.3815078295301646  1.0000
  O   O7        1.0  0.7188926104608981  0.5378578820964321  0.0018126056238543242  1.0000
  O   O8        1.0  0.05511538231257873  0.009570825146511197  0.31923280027695  1.0000
  O   O9        1.0  0.08116618735948578  0.1710488349199295  0.3048129247035831  1.0000
  O   O10       1.0  0.8605742373038083  0.6595868596341461  0.10355479724239558  1.0000
data_image183
_chemical_formula_structural       Sr2Cu2H12O10
_chemical_formula_sum              "Sr2 Cu2 H12 O10"
_cell_length_a       6.296725
_cell_length_b       5.467378000000002
_cell_length_c       7.977295878227032
_cell_angle_alpha    72.20561901156641
_cell_angle_beta     90.0
_cell_angle_gamma    90.0

_space_group_name_H-M_alt    "P 1"
_space_group_IT_number       1

loop_
  _space_group_symop_operation_xyz
  'x, y, z'

loop_
  _atom_site_type_symbol
  _atom_site_label
  _atom_site_symmetry_multiplicity
  _atom_site_fract_x
  _atom_site_fract_y
  _atom_site_fract_z
  _atom_site_occupancy
  Sr  Sr1       1.0  0.020523000974208117  0.19135381327942014  0.5979247484356165  1.0000
  Sr  Sr2       1.0  0.8014221601188183  0.9946730602532625  0.8254371064249426  1.0000
  Cu  Cu1       1.0  0.8555886808317155  0.11770546855404973  0.9362406921572983  1.0000
  Cu  Cu2       1.0  0.9419483088422567  0.0008910908363759518  0.6929436495993286  1.0000
  H   H1        1.0  0.5795089632156305  0.699842696543783  0.8076084622880444  1.0000
  H   H2        1.0  0.301564646884799  0.36411571339704096  0.633195118047297  1.0000
  H   H3        1.0  0.8166639739647508  0.060823047533631325  0.7788044814951718  1.0000
  H   H4        1.0  0.371365774422884  0.29831692203879356  0.5743245841003954  1.0000
  H   H5        1.0  0.9759522816166282  0.027596572879701853  0.5371708256425336  1.0000
  H   H6        1.0  0.7895686121191829  0.9112442508339882  0.2609576683025807  1.0000
  H   H7        1.0  0.06279650656506419  0.9358250666409731  0.33239426219370216  1.0000
  H   H8        1.0  0.6194533053785563  0.5476952285971493  0.31897187780123204  1.0000
  H   H9        1.0  0.28390343743376434  0.48729782085865736  0.011144302319735289  1.0000
  H   H10       1.0  0.514786486979574  0.06766424141824245  0.6111906901933253  1.0000
  H   H11       1.0  0.16310769895790145  0.029877820052206516  0.8941070266300812  1.0000
  H   H12       1.0  0.01836154842749238  0.44101983588188887  0.6898464281111956  1.0000
  O   O1        1.0  0.2640979631105438  0.7341076916272868  0.08133240882307291  1.0000
  O   O2        1.0  0.8618591567501426  0.18505473341792822  0.1418226594105363  1.0000
  O   O3        1.0  0.0672230867203325  0.9479697886176837  0.5925965576898307  1.0000
  O   O4        1.0  0.8602152264211327  0.4862760151736438  0.039581599878147244  1.0000
  O   O5        1.0  0.5497717178659514  0.22216589038725942  0.7855939872461022  1.0000
  O   O6        1.0  0.5275371536263265  0.6018509464338422  0.43875300604850054  1.0000
  O   O7        1.0  0.15621681117045227  0.5309891646029428  0.5284345289692283  1.0000
  O   O8        1.0  0.8902654795006129  0.8469618088565767  0.2553738363785669  1.0000
  O   O9        1.0  0.9380236893775873  0.16199742630124092  0.8997623413160909  1.0000
  O   O10       1.0  0.17543823877349496  0.42971281404607  0.036887343507260084  1.0000
data_image184
_chemical_formula_structural       Sr2Cu2H12O10
_chemical_formula_sum              "Sr2 Cu2 H12 O10"
_cell_length_a       6.296725
_cell_length_b       5.467378000000002
_cell_length_c       7.977295878227032
_cell_angle_alpha    72.20561901156641
_cell_angle_beta     90.0
_cell_angle_gamma    90.0

_space_group_name_H-M_alt    "P 1"
_space_group_IT_number       1

loop_
  _space_group_symop_operation_xyz
  'x, y, z'

loop_
  _atom_site_type_symbol
  _atom_site_label
  _atom_site_symmetry_multiplicity
  _atom_site_fract_x
  _atom_site_fract_y
  _atom_site_fract_z
  _atom_site_occupancy
  Sr  Sr1       1.0  0.4639694900251925  0.26344008930027485  0.27478630980476737  1.0000
  Sr  Sr2       1.0  0.4647159995511174  0.6211605612188578  0.2110162703320384  1.0000
  Cu  Cu1       1.0  0.6748657610733062  0.8903653568122536  0.6004362431995105  1.0000
  Cu  Cu2       1.0  0.08929317677393556  0.9942512244451791  0.7958753202110529  1.0000
  H   H1        1.0  0.29741902399109676  0.30167767917737365  0.8201869707554579  1.0000
  H   H2        1.0  0.4830182995647192  0.025236293207854033  0.6538536138832569  1.0000
  H   H3        1.0  0.5325789861381054  0.34187254682183266  0.13032160699367523  1.0000
  H   H4        1.0  0.22422601468861103  0.6827251687645912  0.24428277695551515  1.0000
  H   H5        1.0  0.5808438346721232  0.768501166254282  0.25576768652535975  1.0000
  H   H6        1.0  0.7979981375392526  0.24777300655841827  0.6241072412813082  1.0000
  H   H7        1.0  0.8271479692775756  0.657508971169591  0.8361511826515198  1.0000
  H   H8        1.0  0.866618940141052  0.42865575989708304  0.5753773527685553  1.0000
  H   H9        1.0  0.8589144085999578  0.7481107646599412  0.9162976909428835  1.0000
  H   H10       1.0  0.6799780325964093  0.6027918662875891  0.5765651753172278  1.0000
  H   H11       1.0  0.7259250625502318  0.16250063478946686  0.25449319602921605  1.0000
  H   H12       1.0  0.07220930745825171  0.8815557770431042  0.5564228296279907  1.0000
  O   O1        1.0  0.09444246988277882  0.5333906833475339  0.2160227809799835  1.0000
  O   O2        1.0  0.019944170955568552  0.7725274567492306  0.16526105627417564  1.0000
  O   O3        1.0  0.1593035247642547  0.003913147344064782  0.5501423275563866  1.0000
  O   O4        1.0  0.11822159751318395  0.86980143058463  0.026133980369195342  1.0000
  O   O5        1.0  0.0033085770555771887  0.5473753493279219  0.20821157937461976  1.0000
  O   O6        1.0  0.2398004890710581  0.7371254097670317  0.2183871564338915  1.0000
  O   O7        1.0  0.18532682615477825  0.10886605689302087  0.3367680405790452  1.0000
  O   O8        1.0  0.09055315377736406  0.2643737909384072  0.6862429877510294  1.0000
  O   O9        1.0  0.731965541257523  0.9766464312560856  0.5642433058601455  1.0000
  O   O10       1.0  0.15861706295982003  0.19923006533645093  0.4775715151336044  1.0000
data_image185
_chemical_formula_structural       Sr2Cu2H12O10
_chemical_formula_sum              "Sr2 Cu2 H12 O10"
_cell_length_a       6.296725
_cell_length_b       5.467378000000002
_cell_length_c       7.977295878227032
_cell_angle_alpha    72.20561901156641
_cell_angle_beta     90.0
_cell_angle_gamma    90.0

_space_group_name_H-M_alt    "P 1"
_space_group_IT_number       1

loop_
  _space_group_symop_operation_xyz
  'x, y, z'

loop_
  _atom_site_type_symbol
  _atom_site_label
  _atom_site_symmetry_multiplicity
  _atom_site_fract_x
  _atom_site_fract_y
  _atom_site_fract_z
  _atom_site_occupancy
  Sr  Sr1       1.0  0.5324832836049609  0.42412859853357077  0.6025888426229358  1.0000
  Sr  Sr2       1.0  0.3775974097661674  0.786961852107197  0.3922412438550964  1.0000
  Cu  Cu1       1.0  0.679959604749456  0.18382844887673855  0.022359840862918645  1.0000
  Cu  Cu2       1.0  0.14583354745991528  0.8917611159849912  0.9677399098873138  1.0000
  H   H1        1.0  0.29402222484350204  0.8419381668791175  0.25260763365076855  1.0000
  H   H2        1.0  0.5410395385697484  0.8092157882638276  0.23238027980551124  1.0000
  H   H3        1.0  0.15278870798647404  0.8771697040647268  0.7137528387829661  1.0000
  H   H4        1.0  0.2087913677096367  0.5339085552841425  0.34021918335929513  1.0000
  H   H5        1.0  0.3374307476915419  0.7748283133842051  0.5750738075585105  1.0000
  H   H6        1.0  0.4327480527572334  0.7721233665943146  0.45536756969522685  1.0000
  H   H7        1.0  0.4354372394736856  0.016624572686851025  0.6283179526217282  1.0000
  H   H8        1.0  0.8433589753694832  0.02093515614978969  0.46179487672634423  1.0000
  H   H9        1.0  0.8846281648147851  0.10670838132500648  0.8372531472705305  1.0000
  H   H10       1.0  0.9215983357280493  0.9974108738824725  0.18288288754411042  1.0000
  H   H11       1.0  0.49369174626190215  0.6752450624480844  0.2181314144982025  1.0000
  H   H12       1.0  0.30670948093757033  0.28967125434428453  0.5993987023830414  1.0000
  O   O1        1.0  0.05143006541766226  0.2972428488137666  0.29766871978063136  1.0000
  O   O2        1.0  0.4402900063432753  0.5328006353229284  0.4232382394839078  1.0000
  O   O3        1.0  0.7751333473715931  0.21117561802088858  0.4719046263489872  1.0000
  O   O4        1.0  0.5151606961153448  0.30811245754011907  0.12840218609198928  1.0000
  O   O5        1.0  0.06382798566482961  0.12993949558585882  0.4021258158099954  1.0000
  O   O6        1.0  0.7432188910897821  0.0861511523835361  0.07581052137538791  1.0000
  O   O7        1.0  0.8268253460773849  0.7149302104953676  0.28721973751089536  1.0000
  O   O8        1.0  0.11815960707417617  0.40205663710366935  0.6335886069573462  1.0000
  O   O9        1.0  0.332465156679973  0.8692136139143258  0.6838578613715072  1.0000
  O   O10       1.0  0.49803952989168465  0.14263313775882125  0.34952915215399116  1.0000
data_image186
_chemical_formula_structural       Sr2Cu2H12O10
_chemical_formula_sum              "Sr2 Cu2 H12 O10"
_cell_length_a       6.296725
_cell_length_b       5.467378000000002
_cell_length_c       7.977295878227032
_cell_angle_alpha    72.20561901156641
_cell_angle_beta     90.0
_cell_angle_gamma    90.0

_space_group_name_H-M_alt    "P 1"
_space_group_IT_number       1

loop_
  _space_group_symop_operation_xyz
  'x, y, z'

loop_
  _atom_site_type_symbol
  _atom_site_label
  _atom_site_symmetry_multiplicity
  _atom_site_fract_x
  _atom_site_fract_y
  _atom_site_fract_z
  _atom_site_occupancy
  Sr  Sr1       1.0  0.7788198224734515  0.6972324326634407  0.9372132543940097  1.0000
  Sr  Sr2       1.0  0.2184717464260757  0.6070510600693524  0.549690542044118  1.0000
  Cu  Cu1       1.0  0.061288406141102314  0.45646594394929707  0.8197759679751471  1.0000
  Cu  Cu2       1.0  0.5114899750333279  0.3980894135311246  0.6935152935329825  1.0000
  H   H1        1.0  0.8920958514790982  0.8440638747997582  0.14688254136126488  1.0000
  H   H2        1.0  0.705176760442555  0.7988790730014443  0.8502226201817393  1.0000
  H   H3        1.0  0.027992751449346542  0.94873440079391  0.4644096354022622  1.0000
  H   H4        1.0  0.8967877831310034  0.6100674103945494  0.7130968486890197  1.0000
  H   H5        1.0  0.7505981307476759  0.26795531110838056  0.98459092277335  1.0000
  H   H6        1.0  0.599514739587903  0.7988952659070492  0.2699293189798482  1.0000
  H   H7        1.0  0.7971562582533807  0.8331215092912316  0.13773885928094387  1.0000
  H   H8        1.0  0.5479448605328798  0.14826188958249986  0.6117090380284935  1.0000
  H   H9        1.0  0.26139496895484626  0.06647857651114464  0.07343583460897207  1.0000
  H   H10       1.0  0.6528561851009727  0.06345184426754713  0.7131286319345236  1.0000
  H   H11       1.0  0.5784250895958394  0.027058313600718975  0.016341891139745712  1.0000
  H   H12       1.0  0.7359444224275649  0.25075938552618027  0.48242924362421036  1.0000
  O   O1        1.0  0.6945241702487692  0.9840721457294421  0.844426151481457  1.0000
  O   O2        1.0  0.6464004185982049  0.4329305673018098  0.3006356393452734  1.0000
  O   O3        1.0  0.25376039231196046  0.3145774764143425  0.12212957825977355  1.0000
  O   O4        1.0  0.9651867812499404  0.8028053076996002  0.23440008028410375  1.0000
  O   O5        1.0  0.4675830762134865  0.35602266911882907  0.474761276935169  1.0000
  O   O6        1.0  0.16772808172390796  0.14985570358112454  0.6254708403721452  1.0000
  O   O7        1.0  0.48896117814729223  0.013480991940014064  0.3960508732998278  1.0000
  O   O8        1.0  0.9041812026798652  0.22595486708451062  0.8909291026648134  1.0000
  O   O9        1.0  0.25839306152192876  0.32445311709307134  0.05849801351905626  1.0000
  O   O10       1.0  0.6424215787556022  0.17364142439328134  0.4539153400110081  1.0000
data_image187
_chemical_formula_structural       Sr2Cu2H12O10
_chemical_formula_sum              "Sr2 Cu2 H12 O10"
_cell_length_a       6.296725
_cell_length_b       5.467378000000002
_cell_length_c       7.977295878227032
_cell_angle_alpha    72.20561901156641
_cell_angle_beta     90.0
_cell_angle_gamma    90.0

_space_group_name_H-M_alt    "P 1"
_space_group_IT_number       1

loop_
  _space_group_symop_operation_xyz
  'x, y, z'

loop_
  _atom_site_type_symbol
  _atom_site_label
  _atom_site_symmetry_multiplicity
  _atom_site_fract_x
  _atom_site_fract_y
  _atom_site_fract_z
  _atom_site_occupancy
  Sr  Sr1       1.0  0.12224934867117554  0.9635201464407146  0.6458833855576813  1.0000
  Sr  Sr2       1.0  0.8193732784129679  0.021628037560731173  0.8512803532648832  1.0000
  Cu  Cu1       1.0  0.5493074101395905  0.29848371632397175  0.9699268164113164  1.0000
  Cu  Cu2       1.0  0.5735560245811939  0.30343425180763006  0.07958807284012437  1.0000
  H   H1        1.0  0.8536805899930187  0.48424758156761527  0.4719478901824914  1.0000
  H   H2        1.0  0.0253644660115242  0.4778960021212697  0.2724175862967968  1.0000
  H   H3        1.0  0.5092082726769149  0.6153286751359701  0.7378272435162216  1.0000
  H   H4        1.0  0.4410769511014223  0.5593066960573196  0.680539267603308  1.0000
  H   H5        1.0  0.9252749285660684  0.01491963630542159  0.966002703178674  1.0000
  H   H6        1.0  0.584764284780249  0.3640827238559723  0.47690677212085575  1.0000
  H   H7        1.0  0.9374981680884957  0.15358027536422014  0.6595651770476252  1.0000
  H   H8        1.0  0.4657617281191051  0.05087164952419698  0.9868298758519813  1.0000
  H   H9        1.0  0.9583132073748857  0.3469632910564542  0.0015163980424404144  1.0000
  H   H10       1.0  0.6880232321564108  0.5755045148544014  0.11370192398317158  1.0000
  H   H11       1.0  0.5677542124758475  0.3979559224098921  0.4659590511582792  1.0000
  H   H12       1.0  0.2964938785880804  0.9688072754070163  0.9945935048162937  1.0000
  O   O1        1.0  0.7107945221941918  0.7771252320962958  0.2698449097806588  1.0000
  O   O2        1.0  0.15582504915073514  0.39560133032500744  0.8348897646646947  1.0000
  O   O3        1.0  0.37119206017814577  0.9016164684067007  0.5607097806641832  1.0000
  O   O4        1.0  0.29083970142528415  0.3093562912545167  0.894885515794158  1.0000
  O   O5        1.0  0.9092864383128472  0.9117444804869592  0.6731797781903879  1.0000
  O   O6        1.0  0.14427632943261415  0.8041877541691065  0.5359188736183569  1.0000
  O   O7        1.0  0.771693908764064  0.2681858816649765  0.21301452460465953  1.0000
  O   O8        1.0  0.44134542139545374  0.027667480404488742  0.659409303101711  1.0000
  O   O9        1.0  0.5237108562723733  0.666894945781678  0.31783529377025843  1.0000
  O   O10       1.0  0.9767875201068819  0.3830131741706282  0.1039234910858795  1.0000
data_image188
_chemical_formula_structural       Sr2Cu2H12O10
_chemical_formula_sum              "Sr2 Cu2 H12 O10"
_cell_length_a       6.296725
_cell_length_b       5.467378000000002
_cell_length_c       7.977295878227032
_cell_angle_alpha    72.20561901156641
_cell_angle_beta     90.0
_cell_angle_gamma    90.0

_space_group_name_H-M_alt    "P 1"
_space_group_IT_number       1

loop_
  _space_group_symop_operation_xyz
  'x, y, z'

loop_
  _atom_site_type_symbol
  _atom_site_label
  _atom_site_symmetry_multiplicity
  _atom_site_fract_x
  _atom_site_fract_y
  _atom_site_fract_z
  _atom_site_occupancy
  Sr  Sr1       1.0  0.42650860131834634  0.04661714378744364  0.11428552237339318  1.0000
  Sr  Sr2       1.0  0.49228657549247146  0.38738600444048643  0.23749058006796986  1.0000
  Cu  Cu1       1.0  0.6808065674267709  0.09794982941821218  0.40270587825216353  1.0000
  Cu  Cu2       1.0  0.7952250614762306  0.44010994979180396  0.8732559725176543  1.0000
  H   H1        1.0  0.7471796836471185  0.292450737208128  0.29725664178840816  1.0000
  H   H2        1.0  0.4044953193515539  0.8225679555907845  0.8297203416004777  1.0000
  H   H3        1.0  0.20390710793435574  0.38401209749281406  0.2713706595823169  1.0000
  H   H4        1.0  0.9152834415435791  0.3709481591358781  0.1557858451269567  1.0000
  H   H5        1.0  0.9716438329778612  0.5012474316172302  0.7997804919723421  1.0000
  H   H6        1.0  0.35310960857896134  0.49723129346966743  0.5108183705306146  1.0000
  H   H7        1.0  0.40399892209097743  0.16603013779968023  0.6321042813360691  1.0000
  H   H8        1.0  0.028102044947445393  0.6673125314991921  0.07792136271018535  1.0000
  H   H9        1.0  0.8706729458644986  0.6814971137791872  0.8506786408834159  1.0000
  H   H10       1.0  0.16297868941910565  0.32188080810010433  0.8468902437016368  1.0000
  H   H11       1.0  0.4727815192309208  0.6595746744424105  0.5556055022170767  1.0000
  H   H12       1.0  0.14868520526215434  0.42453779373317957  0.466795327141881  1.0000
  O   O1        1.0  0.37585137167479843  0.613824270767509  0.46966980409342796  1.0000
  O   O2        1.0  0.6178545691072941  0.17511606635525823  0.6657622393686324  1.0000
  O   O3        1.0  0.15570276114158332  0.034007928927167086  0.8131849948549643  1.0000
  O   O4        1.0  0.5366045155096799  0.9598229143884964  0.8341603099834174  1.0000
  O   O5        1.0  0.6043628081097268  0.5953074048738927  0.4648178283678135  1.0000
  O   O6        1.0  0.17093112494330853  0.12634813459590077  0.3585310223279521  1.0000
  O   O7        1.0  0.5571400005501346  0.6411155059468001  0.790465178899467  1.0000
  O   O8        1.0  0.35689303119215765  0.5518580235075206  0.2523676143027842  1.0000
  O   O9        1.0  0.6676414764951915  0.5055759618990123  0.2410402614132181  1.0000
  O   O10       1.0  0.13790938630700111  0.6100449776276946  0.1513398359529674  1.0000
data_image189
_chemical_formula_structural       Sr2Cu2H12O10
_chemical_formula_sum              "Sr2 Cu2 H12 O10"
_cell_length_a       6.296725
_cell_length_b       5.467378000000002
_cell_length_c       7.977295878227032
_cell_angle_alpha    72.20561901156641
_cell_angle_beta     90.0
_cell_angle_gamma    90.0

_space_group_name_H-M_alt    "P 1"
_space_group_IT_number       1

loop_
  _space_group_symop_operation_xyz
  'x, y, z'

loop_
  _atom_site_type_symbol
  _atom_site_label
  _atom_site_symmetry_multiplicity
  _atom_site_fract_x
  _atom_site_fract_y
  _atom_site_fract_z
  _atom_site_occupancy
  Sr  Sr1       1.0  0.9903939497889951  0.5084563381969929  0.3110613913740963  1.0000
  Sr  Sr2       1.0  0.11291072657331824  0.8297587679699063  0.778556935954839  1.0000
  Cu  Cu1       1.0  0.08619538601487875  0.7894255928695202  0.030645729508250952  1.0000
  Cu  Cu2       1.0  0.22491967654787004  0.7592203887179494  0.803651474416256  1.0000
  H   H1        1.0  0.964636399759911  0.8310758774168789  0.3993735655094497  1.0000
  H   H2        1.0  0.46125837229192257  0.17704147938638926  0.8565353807061911  1.0000
  H   H3        1.0  0.4850797774270177  0.6752151530236006  0.4032057849690318  1.0000
  H   H4        1.0  0.5901267249137163  0.02178493980318308  0.37562286434695125  1.0000
  H   H5        1.0  0.9662693040445447  0.654930773191154  0.03738238260848448  1.0000
  H   H6        1.0  0.9513350767083466  0.9824444949626923  0.2764241950935684  1.0000
  H   H7        1.0  0.8690159660764039  0.23913755733519793  0.2809367668814957  1.0000
  H   H8        1.0  0.0052957129664719105  0.027280361158773303  0.17911616514902562  1.0000
  H   H9        1.0  0.3607345740310848  0.8129057940095663  0.9961304068565369  1.0000
  H   H10       1.0  0.19832833274267614  0.9925480824895203  0.5049383980222046  1.0000
  H   H11       1.0  0.14380619680741802  0.1982051506638527  0.09980445867404342  1.0000
  H   H12       1.0  0.9333899030461907  0.6325245564803481  0.897944949567318  1.0000
  O   O1        1.0  0.7248693314613774  0.28098833850526717  0.8104905565269291  1.0000
  O   O2        1.0  0.6965926382690668  0.1881971270777285  0.49311750871129334  1.0000
  O   O3        1.0  0.8753050062805414  0.3139986804599175  0.9275909260613844  1.0000
  O   O4        1.0  0.14176689856685698  0.6095803790958598  0.21311330259777606  1.0000
  O   O5        1.0  0.8942755865282379  0.8550270006526262  0.995314158826659  1.0000
  O   O6        1.0  0.18589544870337704  0.924153701402247  0.6672353006433696  1.0000
  O   O7        1.0  0.5111976474145195  0.7782449435908347  0.9077873981441371  1.0000
  O   O8        1.0  0.9799538470397238  0.1531322734663263  0.1759495073929429  1.0000
  O   O9        1.0  0.576136578572914  0.09572023921646178  0.23475914902155637  1.0000
  O   O10       1.0  0.3488559144316241  0.3467037018854171  0.24381016520783305  1.0000
data_image190
_chemical_formula_structural       Sr2Cu2H12O10
_chemical_formula_sum              "Sr2 Cu2 H12 O10"
_cell_length_a       6.296725
_cell_length_b       5.467378000000002
_cell_length_c       7.977295878227032
_cell_angle_alpha    72.20561901156641
_cell_angle_beta     90.0
_cell_angle_gamma    90.0

_space_group_name_H-M_alt    "P 1"
_space_group_IT_number       1

loop_
  _space_group_symop_operation_xyz
  'x, y, z'

loop_
  _atom_site_type_symbol
  _atom_site_label
  _atom_site_symmetry_multiplicity
  _atom_site_fract_x
  _atom_site_fract_y
  _atom_site_fract_z
  _atom_site_occupancy
  Sr  Sr1       1.0  0.9113273466791725  0.4173623169772327  0.9173578011104837  1.0000
  Sr  Sr2       1.0  0.9802760970778763  0.07820392539724708  0.9813947479706258  1.0000
  Cu  Cu1       1.0  0.7635869388468564  0.6819352163001895  0.6536341156752314  1.0000
  Cu  Cu2       1.0  0.4928882075473666  0.4227984056342393  0.6207113356795162  1.0000
  H   H1        1.0  0.978354275925085  0.39566534012556076  0.059237379929982126  1.0000
  H   H2        1.0  0.5820396095514297  0.37204855773597956  0.6403583297505975  1.0000
  H   H3        1.0  0.9889774080365896  0.5916408505290747  0.810867294901982  1.0000
  H   H4        1.0  0.6742028091102839  0.09070943389087915  0.8982060714624822  1.0000
  H   H5        1.0  0.9259819937869906  0.5278344596736133  0.10059629601892084  1.0000
  H   H6        1.0  0.20407622796483338  0.9870193749666214  0.5142519921064377  1.0000
  H   H7        1.0  0.4743809993378818  0.6743660131469369  0.6389350083190948  1.0000
  H   H8        1.0  0.28886296274140477  0.8293392460327595  0.037735833204351366  1.0000
  H   H9        1.0  0.22376853739842772  0.6567783262580633  0.707782733021304  1.0000
  H   H10       1.0  0.8896773122251034  0.7636177563108504  0.814991440391168  1.0000
  H   H11       1.0  0.42194157041376457  0.37976084649562836  0.7708314094925299  1.0000
  H   H12       1.0  0.9738946920260787  0.5604481054469943  0.8096798863261938  1.0000
  O   O1        1.0  0.14128042326774448  0.5000980814656941  0.784360368619673  1.0000
  O   O2        1.0  0.7049780641682446  0.7505473857745528  0.7212202930822968  1.0000
  O   O3        1.0  0.5184656286146492  0.6820131402782863  0.3149077696725726  1.0000
  O   O4        1.0  0.8298479416407645  0.8108318969607353  0.8696436076425016  1.0000
  O   O5        1.0  0.4692216739640571  0.06354040815494955  0.3711120737862075  1.0000
  O   O6        1.0  0.34704971479823143  0.9942903108894825  0.0759800998494029  1.0000
  O   O7        1.0  0.733903167230892  0.43251303397119045  0.1815073795733042  1.0000
  O   O8        1.0  0.9290608615883684  0.39587985747493804  0.7557791342260316  1.0000
  O   O9        1.0  0.6072909241775051  0.2557737303432077  0.1211805997081683  1.0000
  O   O10       1.0  0.47809425345622003  0.8650975178461522  0.9683764792280272  1.0000
data_image191
_chemical_formula_structural       Sr2Cu2H12O10
_chemical_formula_sum              "Sr2 Cu2 H12 O10"
_cell_length_a       6.296725
_cell_length_b       5.467378000000002
_cell_length_c       7.977295878227032
_cell_angle_alpha    72.20561901156641
_cell_angle_beta     90.0
_cell_angle_gamma    90.0

_space_group_name_H-M_alt    "P 1"
_space_group_IT_number       1

loop_
  _space_group_symop_operation_xyz
  'x, y, z'

loop_
  _atom_site_type_symbol
  _atom_site_label
  _atom_site_symmetry_multiplicity
  _atom_site_fract_x
  _atom_site_fract_y
  _atom_site_fract_z
  _atom_site_occupancy
  Sr  Sr1       1.0  0.4644096281263046  0.46075107157230377  0.5435717575019225  1.0000
  Sr  Sr2       1.0  0.6196782449260354  0.3118999251164496  0.9951306512812153  1.0000
  Cu  Cu1       1.0  0.587721184361726  0.6242448969278485  0.24399090616498142  1.0000
  Cu  Cu2       1.0  0.8374030385166407  0.4779478330165148  0.26816170616075397  1.0000
  H   H1        1.0  0.39600696333218366  0.4684011675417423  0.5868788319639862  1.0000
  H   H2        1.0  0.9302806071937084  0.10802147584035993  0.34508095402270555  1.0000
  H   H3        1.0  0.4530009585432708  0.9517791364341974  0.9037800705991685  1.0000
  H   H4        1.0  0.9420060701668262  0.5515869855880737  0.031857090536504984  1.0000
  H   H5        1.0  0.7165344022214413  0.7576350811868906  0.39090009982464835  1.0000
  H   H6        1.0  0.057465867372229695  0.5704122371971607  0.31679862388409674  1.0000
  H   H7        1.0  0.6387694547884166  0.8546626809984446  0.15893992828205228  1.0000
  H   H8        1.0  0.3486879812553525  0.852692854590714  0.15215287264436483  1.0000
  H   H9        1.0  0.06253866525366902  0.3713518241420388  0.19580034248065203  1.0000
  H   H10       1.0  0.6538517009466887  0.14899398712441325  0.6373158674687147  1.0000
  H   H11       1.0  0.0311606838949956  0.8585479324683547  0.4252968792570755  1.0000
  H   H12       1.0  0.08749100053682923  0.03797969873994589  0.0044823456555604935  1.0000
  O   O1        1.0  0.32400069618597627  0.9149246866290923  0.26818417804315686  1.0000
  O   O2        1.0  0.6562441000714898  0.042702775448560715  0.2852201338391751  1.0000
  O   O3        1.0  0.5037904183845967  0.504741789351101  0.6986497382167727  1.0000
  O   O4        1.0  0.33441861905157566  0.05924530600896105  0.5589842761401087  1.0000
  O   O5        1.0  0.5797478512395173  0.45238354592584074  0.41061494254972786  1.0000
  O   O6        1.0  0.391590443556197  0.5236477800644934  0.9768685273593292  1.0000
  O   O7        1.0  0.24429785628672107  0.2315871324390173  0.0632851533300709  1.0000
  O   O8        1.0  0.20876516342104878  0.7793075194349512  0.6168564518447965  1.0000
  O   O9        1.0  0.7801728107151575  0.9937801309861243  0.8511877792861924  1.0000
  O   O10       1.0  0.13003426999785006  0.5199498359579593  0.1994321255479008  1.0000
data_image192
_chemical_formula_structural       Sr2Cu2H12O10
_chemical_formula_sum              "Sr2 Cu2 H12 O10"
_cell_length_a       6.296725
_cell_length_b       5.467378000000002
_cell_length_c       7.977295878227032
_cell_angle_alpha    72.20561901156641
_cell_angle_beta     90.0
_cell_angle_gamma    90.0

_space_group_name_H-M_alt    "P 1"
_space_group_IT_number       1

loop_
  _space_group_symop_operation_xyz
  'x, y, z'

loop_
  _atom_site_type_symbol
  _atom_site_label
  _atom_site_symmetry_multiplicity
  _atom_site_fract_x
  _atom_site_fract_y
  _atom_site_fract_z
  _atom_site_occupancy
  Sr  Sr1       1.0  0.9467578114417847  0.21904503041878343  0.9620263045653701  1.0000
  Sr  Sr2       1.0  0.43425242276862264  0.56806760141626  0.809380236431025  1.0000
  Cu  Cu1       1.0  0.18126364285126328  0.3344072187319398  0.3801101664430462  1.0000
  Cu  Cu2       1.0  0.4439740951638669  0.043826601933687925  0.9125162519048899  1.0000
  H   H1        1.0  0.5644503390649334  0.7453932943753898  0.07441459893016145  1.0000
  H   H2        1.0  0.839406743645668  0.7473361562006176  0.6190565535798669  1.0000
  H   H3        1.0  0.7459142217412591  0.003423010930418968  0.037962977308779955  1.0000
  H   H4        1.0  0.14733579754829407  0.511748194694519  0.1411977862007916  1.0000
  H   H5        1.0  0.8373546805232763  0.7866004058159888  0.31399038416566327  1.0000
  H   H6        1.0  0.1452124445931986  0.8010924980044365  0.8523077146383002  1.0000
  H   H7        1.0  0.11056713666766882  0.06765592005103827  0.573289989028126  1.0000
  H   H8        1.0  0.4407409434206784  0.7567315499763936  0.7051748528610915  1.0000
  H   H9        1.0  0.7581886341795325  0.7946209218353033  0.7897092015482485  1.0000
  H   H10       1.0  0.8592474139295518  0.21858942043036222  0.25172420451417565  1.0000
  H   H11       1.0  0.7380185095826164  0.9983962820842862  0.6813247665995732  1.0000
  H   H12       1.0  0.3399375630542636  0.5065653817728162  0.8179299905896187  1.0000
  O   O1        1.0  0.11483961553312838  0.0547102573182201  0.6781827957602218  1.0000
  O   O2        1.0  0.6463266080245376  0.26030716113746166  0.7824492433574051  1.0000
  O   O3        1.0  0.6638224844355136  0.4127819210989401  0.6541365936864167  1.0000
  O   O4        1.0  0.8106514241080731  0.47664357227040455  0.31419918802566826  1.0000
  O   O5        1.0  0.9630811185343191  0.43852006061933935  0.2902261443377938  1.0000
  O   O6        1.0  0.7139115725440206  0.7174663543701172  0.4922800058266148  1.0000
  O   O7        1.0  0.974370416795864  0.48811907158233225  0.9551722496398725  1.0000
  O   O8        1.0  0.12031946716706443  0.82889959809836  0.8006687115412205  1.0000
  O   O9        1.0  0.5432254489278421  0.40800286596640944  0.8939138930927584  1.0000
  O   O10       1.0  0.2112866701791063  0.7638428104110062  0.7645556452916935  1.0000
data_image193
_chemical_formula_structural       Sr2Cu2H12O10
_chemical_formula_sum              "Sr2 Cu2 H12 O10"
_cell_length_a       6.296725
_cell_length_b       5.467378000000002
_cell_length_c       7.977295878227032
_cell_angle_alpha    72.20561901156641
_cell_angle_beta     90.0
_cell_angle_gamma    90.0

_space_group_name_H-M_alt    "P 1"
_space_group_IT_number       1

loop_
  _space_group_symop_operation_xyz
  'x, y, z'

loop_
  _atom_site_type_symbol
  _atom_site_label
  _atom_site_symmetry_multiplicity
  _atom_site_fract_x
  _atom_site_fract_y
  _atom_site_fract_z
  _atom_site_occupancy
  Sr  Sr1       1.0  0.39074701667414047  0.6994420127011836  0.4487000043736771  1.0000
  Sr  Sr2       1.0  0.7010740041732788  0.038489789236336946  0.8734321547672153  1.0000
  Cu  Cu1       1.0  0.6685429243370891  0.09576574061065912  0.0722026304283645  1.0000
  Cu  Cu2       1.0  0.026473360136151314  0.03351933090016246  0.37460134783759713  1.0000
  H   H1        1.0  0.09776872181100771  0.261297439225018  0.6597681366838515  1.0000
  H   H2        1.0  0.36906416714191437  0.8638456123881042  0.5011378386989236  1.0000
  H   H3        1.0  0.45001615351065993  0.5037037469446659  0.8626481352839619  1.0000
  H   H4        1.0  0.493601955473423  0.3163374699652195  0.18454371578991413  1.0000
  H   H5        1.0  0.40886982157826424  0.015944889280945063  0.8536873736302368  1.0000
  H   H6        1.0  0.7253444873495027  0.08947183191776276  0.5560268025146797  1.0000
  H   H7        1.0  0.9845518013462424  0.7605596585199237  0.9870235398411751  1.0000
  H   H8        1.0  0.07253637397661805  0.07433893508277833  0.5805536910193041  1.0000
  H   H9        1.0  0.3468773807398975  0.9845786402001977  0.23854611825663596  1.0000
  H   H10       1.0  0.6955412612296641  0.9269180134870112  0.1991605816874653  1.0000
  H   H11       1.0  0.465102129324805  0.5869163759052753  0.09798500454053283  1.0000
  H   H12       1.0  0.9844043897464871  0.052972303703427315  0.3906829468905926  1.0000
  O   O1        1.0  0.6605034111998975  0.33527113479794934  0.9719233798095956  1.0000
  O   O2        1.0  0.38662644336000085  0.5804046336561441  0.31042896839790046  1.0000
  O   O3        1.0  0.28781355917453766  0.8486683904775418  0.5496569712413475  1.0000
  O   O4        1.0  0.3607445415109396  0.9838391380617395  0.04369475319981575  1.0000
  O   O5        1.0  0.9794685080414638  0.9474614314967766  0.7479558349878062  1.0000
  O   O6        1.0  0.25921322937938385  0.01802768325433135  0.7006909357151017  1.0000
  O   O7        1.0  0.5693400656455196  0.27920087915845215  0.4147009782900568  1.0000
  O   O8        1.0  0.8655030533936952  0.38232602865900844  0.5128991180099547  1.0000
  O   O9        1.0  0.3140332632465288  0.21750906738452613  0.7069196261745674  1.0000
  O   O10       1.0  0.611080872011371  0.12672511022537947  0.5386405382305384  1.0000
data_image194
_chemical_formula_structural       Sr2Cu2H12O10
_chemical_formula_sum              "Sr2 Cu2 H12 O10"
_cell_length_a       6.296725
_cell_length_b       5.467378000000002
_cell_length_c       7.977295878227032
_cell_angle_alpha    72.20561901156641
_cell_angle_beta     90.0
_cell_angle_gamma    90.0

_space_group_name_H-M_alt    "P 1"
_space_group_IT_number       1

loop_
  _space_group_symop_operation_xyz
  'x, y, z'

loop_
  _atom_site_type_symbol
  _atom_site_label
  _atom_site_symmetry_multiplicity
  _atom_site_fract_x
  _atom_site_fract_y
  _atom_site_fract_z
  _atom_site_occupancy
  Sr  Sr1       1.0  0.8993644491711166  0.9041173877194524  0.24590468523092568  1.0000
  Sr  Sr2       1.0  0.16051910910755396  0.35114725679159164  0.08415777480695397  1.0000
  Cu  Cu1       1.0  0.4669688977301121  0.6682948991656303  0.5399738210253417  1.0000
  Cu  Cu2       1.0  0.11160934856161475  0.004037912702187896  0.8104129582643509  1.0000
  H   H1        1.0  0.016227696032729  0.4978126143105328  0.12343552085803822  1.0000
  H   H2        1.0  0.5359268300235271  0.09402352245524526  0.9264172771945596  1.0000
  H   H3        1.0  0.953395483084023  0.6904235705733299  0.8032744135707617  1.0000
  H   H4        1.0  0.5592783559113741  0.9189042570069432  0.11506202397868037  1.0000
  H   H5        1.0  0.6511820936575532  0.3539517759345472  0.42831267893780023  1.0000
  H   H6        1.0  0.2711878882255405  0.32835790142416954  0.20885738893412054  1.0000
  H   H7        1.0  0.0006997948512434959  0.5552716748788953  0.7230457407422364  1.0000
  H   H8        1.0  0.11763394577428699  0.09809224819764495  0.4701279744040221  1.0000
  H   H9        1.0  0.8539927550591528  0.0060086678713560104  0.5862122275866568  1.0000
  H   H10       1.0  0.8532235689926893  0.8764966782182455  0.43093540146946907  1.0000
  H   H11       1.0  0.5216959362733178  0.9370456114411354  0.8728892949875444  1.0000
  H   H12       1.0  0.9663377064280212  0.8983226306736469  0.524083137512207  1.0000
  O   O1        1.0  0.29803379403892905  0.4188038657666766  0.5925011526560411  1.0000
  O   O2        1.0  0.09733292926102877  0.2977645336650312  0.20943489577621222  1.0000
  O   O3        1.0  0.877075812779367  0.7567295468688826  0.5303772031329572  1.0000
  O   O4        1.0  0.8667816300876439  0.7146698234137148  0.6675842711701989  1.0000
  O   O5        1.0  0.7589471583487466  0.43956973182503134  0.09220091107999906  1.0000
  O   O6        1.0  0.018105934796039946  0.7569475299678743  0.7645587463630363  1.0000
  O   O7        1.0  0.9546345231901796  0.09222755010705441  0.6733109182969201  1.0000
  O   O8        1.0  0.9234788712283262  0.533879523165524  0.29914269514847547  1.0000
  O   O9        1.0  0.14964921586215496  0.3489803564734757  0.6435464727128419  1.0000
  O   O10       1.0  0.5191920272773132  0.37514231889508665  0.28786950989160687  1.0000
data_image195
_chemical_formula_structural       Sr2Cu2H12O10
_chemical_formula_sum              "Sr2 Cu2 H12 O10"
_cell_length_a       6.296725
_cell_length_b       5.467378000000002
_cell_length_c       7.977295878227032
_cell_angle_alpha    72.20561901156641
_cell_angle_beta     90.0
_cell_angle_gamma    90.0

_space_group_name_H-M_alt    "P 1"
_space_group_IT_number       1

loop_
  _space_group_symop_operation_xyz
  'x, y, z'

loop_
  _atom_site_type_symbol
  _atom_site_label
  _atom_site_symmetry_multiplicity
  _atom_site_fract_x
  _atom_site_fract_y
  _atom_site_fract_z
  _atom_site_occupancy
  Sr  Sr1       1.0  0.009178162465104833  0.9531641788780689  0.8813946092268452  1.0000
  Sr  Sr2       1.0  0.9967452767305076  0.5147888623178005  0.824385324085597  1.0000
  Cu  Cu1       1.0  0.8764689438976347  0.21071807038970292  0.4846133297251072  1.0000
  Cu  Cu2       1.0  0.27358976122923195  0.7300723087973893  0.327791202114895  1.0000
  H   H1        1.0  0.16464760637609288  0.23789027240127325  0.08166962070390582  1.0000
  H   H2        1.0  0.13585493341088295  0.01755503099411726  0.0950454119592905  1.0000
  H   H3        1.0  0.7676877410849556  0.005989845842123032  0.6104801165638492  1.0000
  H   H4        1.0  0.5694254171103239  0.629536347463727  0.7159759197384119  1.0000
  H   H5        1.0  0.9179149139672518  0.34334833454340696  0.9911964640486985  1.0000
  H   H6        1.0  0.187510788673535  0.5032437704503536  0.9379406097577885  1.0000
  H   H7        1.0  0.8874095305800438  0.9643634082749486  0.0023516034707427025  1.0000
  H   H8        1.0  0.7834774614311755  0.6518896049819887  0.5254812764469534  1.0000
  H   H9        1.0  0.25438578287139535  0.5497960364446044  0.7916623197961599  1.0000
  H   H10       1.0  0.41283370926976204  0.5242211767472327  0.12834423780441284  1.0000
  H   H11       1.0  0.809688794601243  0.040875937789678574  0.10562990175094455  1.0000
  H   H12       1.0  0.6750607225112617  0.5720269177109003  0.9955679904669523  1.0000
  O   O1        1.0  0.05750454461667687  0.8370876294502523  0.36792158882599324  1.0000
  O   O2        1.0  0.30672949692234397  0.01054008724167943  0.555085142608732  1.0000
  O   O3        1.0  0.8835905892774463  0.8830769076594152  0.18423054204322398  1.0000
  O   O4        1.0  0.23930137930437922  0.7019908829824999  0.9358475005719811  1.0000
  O   O5        1.0  0.1605603510979563  0.3849764948245138  0.7232734117133077  1.0000
  O   O6        1.0  0.846439353961614  0.906224244274199  0.6286148836370558  1.0000
  O   O7        1.0  0.15312329020525794  0.3259043153375387  0.14820182052790187  1.0000
  O   O8        1.0  0.2833060507564369  0.9748858192469925  0.42528256634250283  1.0000
  O   O9        1.0  0.1830922236549668  0.36121465149335563  0.8661442031661863  1.0000
  O   O10       1.0  0.10092414682731032  0.0473381788469851  0.7415113155730069  1.0000
data_image196
_chemical_formula_structural       Sr2Cu2H12O10
_chemical_formula_sum              "Sr2 Cu2 H12 O10"
_cell_length_a       6.296725
_cell_length_b       5.467378000000002
_cell_length_c       7.977295878227032
_cell_angle_alpha    72.20561901156641
_cell_angle_beta     90.0
_cell_angle_gamma    90.0

_space_group_name_H-M_alt    "P 1"
_space_group_IT_number       1

loop_
  _space_group_symop_operation_xyz
  'x, y, z'

loop_
  _atom_site_type_symbol
  _atom_site_label
  _atom_site_symmetry_multiplicity
  _atom_site_fract_x
  _atom_site_fract_y
  _atom_site_fract_z
  _atom_site_occupancy
  Sr  Sr1       1.0  0.8632008109125309  0.4401140809059143  0.9726333349244669  1.0000
  Sr  Sr2       1.0  0.921243682038039  0.4276044834405184  0.30973709098179825  1.0000
  Cu  Cu1       1.0  0.425205341540277  0.3354260358028114  0.6607956644147635  1.0000
  Cu  Cu2       1.0  0.9599976963363588  0.8597202089149505  0.798160346923396  1.0000
  H   H1        1.0  0.7513790168450214  0.5246962439268827  0.19934521615505219  1.0000
  H   H2        1.0  0.08724384196102619  0.7848307425156236  0.9290159214287996  1.0000
  H   H3        1.0  0.25308652594685555  0.614173011854291  0.8240142327413196  1.0000
  H   H4        1.0  0.6766003984957933  0.286639123223722  0.9352264353074133  1.0000
  H   H5        1.0  0.25512557849287987  0.7829989991150796  0.9002981936791912  1.0000
  H   H6        1.0  0.9747330303071067  0.9298251606523991  0.7696124800713733  1.0000
  H   H7        1.0  0.8912342227995396  0.4839347368106246  0.5368152353912592  1.0000
  H   H8        1.0  0.32373035373166203  0.307824318530038  0.847440657671541  1.0000
  H   H9        1.0  0.7595125250518322  0.549652392975986  0.7997405822388828  1.0000
  H   H10       1.0  0.1350452695041895  0.8996946304105222  0.7912441089283675  1.0000
  H   H11       1.0  0.8805128668900579  0.6585597461089492  0.9236614881083369  1.0000
  H   H12       1.0  0.6256834855303168  0.7037438238039613  0.7209410611540079  1.0000
  O   O1        1.0  0.5921686444198713  0.3079442115777056  0.309229580918327  1.0000
  O   O2        1.0  0.4696688004769385  0.8420602572150528  0.27594822784885764  1.0000
  O   O3        1.0  0.41855340532492846  0.9268185051623732  0.8591162071097642  1.0000
  O   O4        1.0  0.8418725547380745  0.9805882298969664  0.4267933410592377  1.0000
  O   O5        1.0  0.8900190927088261  0.2474390872521326  0.5674623898521531  1.0000
  O   O6        1.0  0.9007953217951581  0.5752910422161222  0.5153937928844243  1.0000
  O   O7        1.0  0.8651023275306216  0.4460493118967861  0.9090004861354828  1.0000
  O   O8        1.0  0.5690769589273259  0.1261795636964962  0.8184840139001608  1.0000
  O   O9        1.0  0.18951290525728837  0.6322202645242214  0.0198925070471887  1.0000
  O   O10       1.0  0.6274301374796778  0.5776469062548131  0.011870511225424707  1.0000
data_image197
_chemical_formula_structural       Sr2Cu2H12O10
_chemical_formula_sum              "Sr2 Cu2 H12 O10"
_cell_length_a       6.296725
_cell_length_b       5.467378000000002
_cell_length_c       7.977295878227032
_cell_angle_alpha    72.20561901156641
_cell_angle_beta     90.0
_cell_angle_gamma    90.0

_space_group_name_H-M_alt    "P 1"
_space_group_IT_number       1

loop_
  _space_group_symop_operation_xyz
  'x, y, z'

loop_
  _atom_site_type_symbol
  _atom_site_label
  _atom_site_symmetry_multiplicity
  _atom_site_fract_x
  _atom_site_fract_y
  _atom_site_fract_z
  _atom_site_occupancy
  Sr  Sr1       1.0  0.129455026879441  0.16501062270253897  0.496981124044396  1.0000
  Sr  Sr2       1.0  0.6242767637595534  0.6459696842357516  0.7577505826338893  1.0000
  Cu  Cu1       1.0  0.9457795419730246  0.4095381873194128  0.9150098720565438  1.0000
  Cu  Cu2       1.0  0.7735108428169042  0.6757143149152398  0.3961067204363644  1.0000
  H   H1        1.0  0.2829546997672878  0.4281070497818291  0.35546076158061624  1.0000
  H   H2        1.0  0.9969399627298117  0.5355262425728142  0.8792278775945306  1.0000
  H   H3        1.0  0.5472418665885925  0.9719878602772951  0.16743405448505655  1.0000
  H   H4        1.0  0.8867780286818743  0.7676567491143942  0.4631087426096201  1.0000
  H   H5        1.0  0.07535925507545471  0.9358771247789264  0.9480650631012395  1.0000
  H   H6        1.0  0.1812751586548984  0.5950016640126705  0.5248088975204155  1.0000
  H   H7        1.0  0.9048752225935459  0.7958335299044847  0.009385847020894289  1.0000
  H   H8        1.0  0.5250766193494201  0.04096947843208909  0.4837589662056416  1.0000
  H   H9        1.0  0.4608408333733678  0.882681111805141  0.1033835532143712  1.0000
  H   H10       1.0  0.2516543378587812  0.8625827855430543  0.5391819572541863  1.0000
  H   H11       1.0  0.46432821423513815  0.8644735654816031  0.11769165145233274  1.0000
  H   H12       1.0  0.0025299093686044216  0.06566263176500797  0.892104459926486  1.0000
  O   O1        1.0  0.6272319963900372  0.8183968502489734  0.34407638595439494  1.0000
  O   O2        1.0  0.913188764359802  0.6736544826999307  0.8539989774581045  1.0000
  O   O3        1.0  0.6768660893430933  0.05292727972846478  0.4765748765785247  1.0000
  O   O4        1.0  0.402675564866513  0.44521780469221994  0.4382022807840258  1.0000
  O   O5        1.0  0.7118800373282284  0.17421584553085268  0.9570016507932451  1.0000
  O   O6        1.0  0.8458114988461602  0.12061614356935024  0.14285462466068566  1.0000
  O   O7        1.0  0.6667582366790157  0.5684312460944057  0.055450908199418336  1.0000
  O   O8        1.0  0.03186045504480717  0.9742712966399267  0.4541109559359029  1.0000
  O   O9        1.0  0.5368717280798592  0.973910307046026  0.46731073714909144  1.0000
  O   O10       1.0  0.3786645088111982  0.28367024986073375  0.2605878890026361  1.0000
data_image198
_chemical_formula_structural       Sr2Cu2H12O10
_chemical_formula_sum              "Sr2 Cu2 H12 O10"
_cell_length_a       6.296725
_cell_length_b       5.467378000000002
_cell_length_c       7.977295878227032
_cell_angle_alpha    72.20561901156641
_cell_angle_beta     90.0
_cell_angle_gamma    90.0

_space_group_name_H-M_alt    "P 1"
_space_group_IT_number       1

loop_
  _space_group_symop_operation_xyz
  'x, y, z'

loop_
  _atom_site_type_symbol
  _atom_site_label
  _atom_site_symmetry_multiplicity
  _atom_site_fract_x
  _atom_site_fract_y
  _atom_site_fract_z
  _atom_site_occupancy
  Sr  Sr1       1.0  0.17804082794464193  0.0345036000944674  0.7281737935263664  1.0000
  Sr  Sr2       1.0  0.15811875136569142  0.4443439757451415  0.47629858362779487  1.0000
  Cu  Cu1       1.0  0.6835715747438371  0.7516193632036448  0.9851012913277373  1.0000
  Cu  Cu2       1.0  0.951650588773191  0.444726028945297  0.8138061659410596  1.0000
  H   H1        1.0  0.23877284093759954  0.3259167433716357  0.5699863188783638  1.0000
  H   H2        1.0  0.7681488823145628  0.9718273282051086  0.2628214843571186  1.0000
  H   H3        1.0  0.6596678225323558  0.3936053831130266  0.8866808061138727  1.0000
  H   H4        1.0  0.46875147707760334  0.9008866539224982  0.2991032088175416  1.0000
  H   H5        1.0  0.12410414777696133  0.7786064497195184  0.25985678407596424  1.0000
  H   H6        1.0  0.21837822871748358  0.45790713652968407  0.6106299057137221  1.0000
  H   H7        1.0  0.3095111297443509  0.8402434336021543  0.6836623623967171  1.0000
  H   H8        1.0  0.4551336346194148  0.9868308692239225  0.7296942656394094  1.0000
  H   H9        1.0  0.7572713270783424  0.20964673161506653  0.7328307087300345  1.0000
  H   H10       1.0  0.9312643357552588  0.5231937761418521  0.6810467406176031  1.0000
  H   H11       1.0  0.519739028532058  0.5886572543531656  0.4913581848377362  1.0000
  H   H12       1.0  0.692166609223932  0.6146093541756272  0.5752142649143934  1.0000
  O   O1        1.0  0.10083367442712188  0.5044529443403007  0.06647486274596304  1.0000
  O   O2        1.0  0.028082093689590693  0.7703769481740892  0.5260670261923224  1.0000
  O   O3        1.0  0.0006523530464619398  0.9052657182328403  0.5562209186609834  1.0000
  O   O4        1.0  0.4434002605266869  0.8234382506925613  0.37033493514172733  1.0000
  O   O5        1.0  0.20442730619106442  0.08563814626540989  0.45518130794516765  1.0000
  O   O6        1.0  0.880827583532664  0.4375670710578561  0.09310810570605099  1.0000
  O   O7        1.0  0.389591377650504  0.8606951176188886  0.92347853659885  1.0000
  O   O8        1.0  0.1390196114371065  0.3119062122423202  0.44298286410048604  1.0000
  O   O9        1.0  0.32710057182703167  0.6282866189721972  0.08267282883389271  1.0000
  O   O10       1.0  0.5239025733899325  0.36955415131524205  0.33751994045451283  1.0000
data_image199
_chemical_formula_structural       Sr2Cu2H12O10
_chemical_formula_sum              "Sr2 Cu2 H12 O10"
_cell_length_a       6.296725
_cell_length_b       5.467378000000002
_cell_length_c       7.977295878227032
_cell_angle_alpha    72.20561901156641
_cell_angle_beta     90.0
_cell_angle_gamma    90.0

_space_group_name_H-M_alt    "P 1"
_space_group_IT_number       1

loop_
  _space_group_symop_operation_xyz
  'x, y, z'

loop_
  _atom_site_type_symbol
  _atom_site_label
  _atom_site_symmetry_multiplicity
  _atom_site_fract_x
  _atom_site_fract_y
  _atom_site_fract_z
  _atom_site_occupancy
  Sr  Sr1       1.0  0.8201841562404297  0.7596498932689428  0.8296353825135157  1.0000
  Sr  Sr2       1.0  0.138708908110857  0.6304165790788829  0.7316013817398925  1.0000
  Cu  Cu1       1.0  0.886770686134696  0.9543496677652001  0.8824502299539745  1.0000
  Cu  Cu2       1.0  0.2669030528049916  0.9446325865574181  0.22582068829797208  1.0000
  H   H1        1.0  0.4168299029697664  0.29583980655297637  0.5992096071131527  1.0000
  H   H2        1.0  0.8286436703056097  0.9028578195720911  0.5963948387652636  1.0000
  H   H3        1.0  0.44082336220890284  0.9898659083992243  0.12156294455053285  1.0000
  H   H4        1.0  0.0797076765447855  0.08095736522227526  0.07190109882503748  1.0000
  H   H5        1.0  0.7666145842522383  0.7140951724722981  0.5018248108099215  1.0000
  H   H6        1.0  0.2844783397158608  0.37074951082468033  0.760407586931251  1.0000
  H   H7        1.0  0.32984806690365076  0.4621871653944254  0.5203064503148198  1.0000
  H   H8        1.0  0.758850138168782  0.42808687477372587  0.6302198471967131  1.0000
  H   H9        1.0  0.08948310511186719  0.6168542876839638  0.5043063982157037  1.0000
  H   H10       1.0  0.09282463206909597  0.016724462620913982  0.4340237770229578  1.0000
  H   H11       1.0  0.23409005644498393  0.8323475634679198  0.3677451218245551  1.0000
  H   H12       1.0  0.8206638102419674  0.9467350663617253  0.18950673006474972  1.0000
  O   O1        1.0  0.0840761010767892  0.6930103549129853  0.9297255617566407  1.0000
  O   O2        1.0  0.6782389506697655  0.0178140583448112  0.8946627771947533  1.0000
  O   O3        1.0  0.47278438857756555  0.12451182340737432  0.9375412578228861  1.0000
  O   O4        1.0  0.48015481140464544  0.6179491696530022  0.007430604193359613  1.0000
  O   O5        1.0  0.869950415333733  0.8514032020466402  0.8655404802120756  1.0000
  O   O6        1.0  0.19186636508675292  0.06066553294658661  0.5815112653654069  1.0000
  O   O7        1.0  0.339069733658107  0.7587769855745137  0.2393601174117066  1.0000
  O   O8        1.0  0.7523291106335819  0.6391705280402675  0.00038489012513309717  1.0000
  O   O9        1.0  0.29553837765706703  0.580498744500801  0.9042822371229704  1.0000
  O   O10       1.0  0.02210265363100916  0.6769881981890649  0.9649865902028978  1.0000
data_image200
_chemical_formula_structural       Sr2Cu2H12O10
_chemical_formula_sum              "Sr2 Cu2 H12 O10"
_cell_length_a       6.296725
_cell_length_b       5.467378000000002
_cell_length_c       7.977295878227032
_cell_angle_alpha    72.20561901156641
_cell_angle_beta     90.0
_cell_angle_gamma    90.0

_space_group_name_H-M_alt    "P 1"
_space_group_IT_number       1

loop_
  _space_group_symop_operation_xyz
  'x, y, z'

loop_
  _atom_site_type_symbol
  _atom_site_label
  _atom_site_symmetry_multiplicity
  _atom_site_fract_x
  _atom_site_fract_y
  _atom_site_fract_z
  _atom_site_occupancy
  Sr  Sr1       1.0  0.9173865491466131  0.3026588261127472  0.41499106760602444  1.0000
  Sr  Sr2       1.0  0.7329150578007102  0.23915184289216995  0.36243010277303256  1.0000
  Cu  Cu1       1.0  0.06441844068467617  0.5522458503255621  0.30439654854126275  1.0000
  Cu  Cu2       1.0  0.35128671885468066  0.09159401338547468  0.4623716315254569  1.0000
  H   H1        1.0  0.438644960639067  0.20827980153262615  0.8733628647169098  1.0000
  H   H2        1.0  0.8733186963945627  0.07004893012344837  0.7671804437413812  1.0000
  H   H3        1.0  0.30639452394098043  0.3513088468462229  0.975498944404535  1.0000
  H   H4        1.0  0.12182293646037579  0.769444708712399  0.5081722112372518  1.0000
  H   H5        1.0  0.03948064614087343  0.08817945094779134  0.3760797763825394  1.0000
  H   H6        1.0  0.31292500882409513  0.6217405870556831  0.7673029458383098  1.0000
  H   H7        1.0  0.06406252272427082  0.3362836530432105  0.5806314190849662  1.0000
  H   H8        1.0  0.520687410607934  0.4837348540313542  0.6966522329021245  1.0000
  H   H9        1.0  0.43222384667024016  0.08023467659950256  0.30188539845403284  1.0000
  H   H10       1.0  0.6139547466300428  0.9151594685390592  0.26050972333177924  1.0000
  H   H11       1.0  0.5299214101978578  0.5080023147165775  0.5465448456816375  1.0000
  H   H12       1.0  0.08340888377279043  0.45086365565657616  0.6702811811119318  1.0000
  O   O1        1.0  0.34537876362446696  0.7396680946476408  0.9244369058869779  1.0000
  O   O2        1.0  0.36115180514752865  0.16606197459623218  0.7068604554515332  1.0000
  O   O3        1.0  0.4747780845500529  0.4764711818424985  0.8609829433262348  1.0000
  O   O4        1.0  0.6457293874118477  0.025979538331739604  0.32021793304011226  1.0000
  O   O5        1.0  0.3032975869718939  0.47941931639797986  0.28567967482376844  1.0000
  O   O6        1.0  0.6298048831959022  0.1332724462263286  0.5818077846197411  1.0000
  O   O7        1.0  0.5911560960375937  0.19149020523764193  0.5807718808646314  1.0000
  O   O8        1.0  0.40356735918976483  0.21653986757155508  0.16827623441349715  1.0000
  O   O9        1.0  0.11241344880545512  0.8969885071273893  0.11173595525679048  1.0000
  O   O10       1.0  0.33203185733873397  0.6254690100904554  0.7876198202138767  1.0000
