data_image0
_chemical_formula_structural       Li4H4S2O10
_chemical_formula_sum              "Li4 H4 S2 O10"
_cell_length_a       4.90399
_cell_length_b       5.555894000000001
_cell_length_c       8.269645510084757
_cell_angle_alpha    72.8917451750904
_cell_angle_beta     90.0
_cell_angle_gamma    90.0

_space_group_name_H-M_alt    "P 1"
_space_group_IT_number       1

loop_
  _space_group_symop_operation_xyz
  'x, y, z'

loop_
  _atom_site_type_symbol
  _atom_site_label
  _atom_site_symmetry_multiplicity
  _atom_site_fract_x
  _atom_site_fract_y
  _atom_site_fract_z
  _atom_site_occupancy
  Li  Li1       1.0  0.510576  0.5602659999999999  0.6051019999999999  1.0000
  Li  Li2       1.0  0.000971  0.696686  0.9932120000000001  1.0000
  Li  Li3       1.0  0.010576  0.43973399999999996  0.394898  1.0000
  Li  Li4       1.0  0.500971  0.303314  0.0067880000000000084  1.0000
  H   H1        1.0  0.8665279999999999  0.9950609999999998  0.440372  1.0000
  H   H2        1.0  0.114516  0.030291000000000002  0.3095419999999999  1.0000
  H   H3        1.0  0.366528  0.004938999999999993  0.559628  1.0000
  H   H4        1.0  0.614516  0.9697089999999999  0.6904579999999999  1.0000
  S   S1        1.0  0.9973719999999999  0.293323  0.7915140000000002  1.0000
  S   S2        1.0  0.497372  0.706677  0.20848600000000003  1.0000
  O   O1        1.0  0.887419  0.43520500000000006  0.6216099999999999  1.0000
  O   O2        1.0  0.3874189999999999  0.564795  0.37839  1.0000
  O   O3        1.0  0.5369779999999998  0.912887  0.5981759999999999  1.0000
  O   O4        1.0  0.376077  0.600991  0.07801699999999999  1.0000
  O   O5        1.0  0.2997109999999999  0.326857  0.7903150000000001  1.0000
  O   O6        1.0  0.799711  0.6731429999999999  0.209685  1.0000
  O   O7        1.0  0.8760769999999999  0.39900900000000006  0.9219830000000001  1.0000
  O   O8        1.0  0.03697799999999999  0.087113  0.401824  1.0000
  O   O9        1.0  0.9246509999999999  0.023606000000000075  0.8286089999999999  1.0000
  O   O10       1.0  0.42465099999999995  0.976394  0.17139099999999993  1.0000
data_image1
_chemical_formula_structural       Li4H4S2O10
_chemical_formula_sum              "Li4 H4 S2 O10"
_cell_length_a       4.90399
_cell_length_b       5.555894000000001
_cell_length_c       8.269645510084757
_cell_angle_alpha    72.8917451750904
_cell_angle_beta     90.0
_cell_angle_gamma    90.0

_space_group_name_H-M_alt    "P 1"
_space_group_IT_number       1

loop_
  _space_group_symop_operation_xyz
  'x, y, z'

loop_
  _atom_site_type_symbol
  _atom_site_label
  _atom_site_symmetry_multiplicity
  _atom_site_fract_x
  _atom_site_fract_y
  _atom_site_fract_z
  _atom_site_occupancy
  Li  Li1       1.0  0.4969458777645246  0.3814595273357202  0.5844369539207642  1.0000
  Li  Li2       1.0  0.09327536399763388  0.8012027827170036  0.9853147500794069  1.0000
  Li  Li3       1.0  0.9764204280713258  0.36837240705522223  0.3992230082937461  1.0000
  Li  Li4       1.0  0.5330748193011083  0.3559637194106906  0.9862856624121015  1.0000
  H   H1        1.0  0.9669284861477644  0.7943891278460806  0.4503167089247246  1.0000
  H   H2        1.0  0.2609847993175783  0.9833915260036645  0.32032132689995885  1.0000
  H   H3        1.0  0.3313846088447228  0.85928012315208  0.5339973036583483  1.0000
  H   H4        1.0  0.6351477729424124  0.8362802504098864  0.5893433147414957  1.0000
  S   S1        1.0  0.9909792828321655  0.31572895801599193  0.8128008615998493  1.0000
  S   S2        1.0  0.5217298942309347  0.7453053167371723  0.19078270830061583  1.0000
  O   O1        1.0  0.8898658508725612  0.40497713786004297  0.610785221454651  1.0000
  O   O2        1.0  0.37535215961806184  0.5411903678589858  0.3245009271165001  1.0000
  O   O3        1.0  0.4679137473530276  0.7729152333619013  0.6401106129320567  1.0000
  O   O4        1.0  0.44159005760056425  0.6883337176634652  0.026391580563362587  1.0000
  O   O5        1.0  0.31184859715853314  0.3301540560359171  0.8107372045488267  1.0000
  O   O6        1.0  0.8136727388543801  0.7203412868227375  0.21282771234828401  1.0000
  O   O7        1.0  0.8864239980393653  0.457608761368149  0.9219471217045483  1.0000
  O   O8        1.0  0.024419901050112398  0.9859048855807228  0.4354404877218668  1.0000
  O   O9        1.0  0.8765909874625571  0.061037678496479335  0.8539897405646806  1.0000
  O   O10       1.0  0.38648339410775856  0.9977039326957574  0.19067921392629275  1.0000
data_image2
_chemical_formula_structural       Li4H4S2O10
_chemical_formula_sum              "Li4 H4 S2 O10"
_cell_length_a       4.90399
_cell_length_b       5.555894000000001
_cell_length_c       8.269645510084757
_cell_angle_alpha    72.8917451750904
_cell_angle_beta     90.0
_cell_angle_gamma    90.0

_space_group_name_H-M_alt    "P 1"
_space_group_IT_number       1

loop_
  _space_group_symop_operation_xyz
  'x, y, z'

loop_
  _atom_site_type_symbol
  _atom_site_label
  _atom_site_symmetry_multiplicity
  _atom_site_fract_x
  _atom_site_fract_y
  _atom_site_fract_z
  _atom_site_occupancy
  Li  Li1       1.0  0.16334811255609205  0.6700714737970304  0.4011118724236951  1.0000
  Li  Li2       1.0  0.9876388210807696  0.18109083534371084  0.2929415046457855  1.0000
  Li  Li3       1.0  0.5554215368775469  0.14172854628741688  0.43076886202045556  1.0000
  Li  Li4       1.0  0.36252860861933434  0.3255595084987336  0.10098795027285515  1.0000
  H   H1        1.0  0.5900066224782594  0.4253437838057228  0.5587351392938515  1.0000
  H   H2        1.0  0.3889244295434571  0.9684648152014368  0.06825827589152  1.0000
  H   H3        1.0  0.7459798974557259  0.08420495105391979  0.04224929693710777  1.0000
  H   H4        1.0  0.6225809797662394  0.28157457599223923  0.19638553488213698  1.0000
  S   S1        1.0  0.3265899304500244  0.03517072954115828  0.6480326419322795  1.0000
  S   S2        1.0  0.24486455222733186  0.9025618623770574  0.09583303593942291  1.0000
  O   O1        1.0  0.9537892436822766  0.4666295992662657  0.4820054622302141  1.0000
  O   O2        1.0  0.649401195191994  0.6893654797479273  0.942347633329512  1.0000
  O   O3        1.0  0.13996301933610034  0.27375533172688127  0.4762463560036181  1.0000
  O   O4        1.0  0.6443587670182542  0.1856857159487565  0.2161494341541388  1.0000
  O   O5        1.0  0.465033579791847  0.5952208892497508  0.7161250022095274  1.0000
  O   O6        1.0  0.6790945145715678  0.5215714003341834  0.20380330598043309  1.0000
  O   O7        1.0  0.004508633136294016  0.5487637168977877  0.6076523661343807  1.0000
  O   O8        1.0  0.04583810301949744  0.8404366965954764  0.4970772547771597  1.0000
  O   O9        1.0  0.8277287149443485  0.8892367514177135  0.6032468987427286  1.0000
  O   O10       1.0  0.46158077625385907  0.9770087793305637  0.2425119544514747  1.0000
data_image3
_chemical_formula_structural       Li4H4S2O10
_chemical_formula_sum              "Li4 H4 S2 O10"
_cell_length_a       4.90399
_cell_length_b       5.555894000000001
_cell_length_c       8.269645510084757
_cell_angle_alpha    72.8917451750904
_cell_angle_beta     90.0
_cell_angle_gamma    90.0

_space_group_name_H-M_alt    "P 1"
_space_group_IT_number       1

loop_
  _space_group_symop_operation_xyz
  'x, y, z'

loop_
  _atom_site_type_symbol
  _atom_site_label
  _atom_site_symmetry_multiplicity
  _atom_site_fract_x
  _atom_site_fract_y
  _atom_site_fract_z
  _atom_site_occupancy
  Li  Li1       1.0  0.4152087133768987  0.26531133430600207  0.9535135401342245  1.0000
  Li  Li2       1.0  0.8282545259576182  0.11472777685980873  0.9864358686799051  1.0000
  Li  Li3       1.0  0.8556698169291508  0.916187392406016  0.286385305484572  1.0000
  Li  Li4       1.0  0.40347461943747476  0.2337202451817575  0.11550720746890875  1.0000
  H   H1        1.0  0.7387814079916097  0.8611835677029376  0.03347513833614357  1.0000
  H   H2        1.0  0.8136443065923231  0.7547402374157173  0.1943400271657083  1.0000
  H   H3        1.0  0.8165022877858519  0.9645546005162942  0.1602487324843196  1.0000
  H   H4        1.0  0.5280592096969485  0.37589498661691323  0.8879447300787433  1.0000
  S   S1        1.0  0.22876441168773454  0.6309785190933326  0.00625029919683584  1.0000
  S   S2        1.0  0.6627876838183511  0.4377506725504645  0.1697400134992222  1.0000
  O   O1        1.0  0.49091373627538815  0.5865469515792938  0.5167481465932724  1.0000
  O   O2        1.0  0.01413363653236388  0.36749850338287615  0.7590570801424974  1.0000
  O   O3        1.0  0.6313884821367424  0.783065364861045  0.9963966716934181  1.0000
  O   O4        1.0  0.7340963139822634  0.9607894377035109  0.9503476322199731  1.0000
  O   O5        1.0  0.09221702520852659  0.5767941634158547  0.37578960632237113  1.0000
  O   O6        1.0  0.7090432215409237  0.039812192925637646  0.6529208801946425  1.0000
  O   O7        1.0  0.7665239743191705  0.18232668257087425  0.9683369999097522  1.0000
  O   O8        1.0  0.15467467689268233  0.5034012552042952  0.789294691638446  1.0000
  O   O9        1.0  0.8500467991739242  0.3681764414891404  0.8552621475309934  1.0000
  O   O10       1.0  0.25240018369458994  0.03702916547854329  0.04979467235635582  1.0000
data_image4
_chemical_formula_structural       Li4H4S2O10
_chemical_formula_sum              "Li4 H4 S2 O10"
_cell_length_a       4.90399
_cell_length_b       5.555894000000001
_cell_length_c       8.269645510084757
_cell_angle_alpha    72.8917451750904
_cell_angle_beta     90.0
_cell_angle_gamma    90.0

_space_group_name_H-M_alt    "P 1"
_space_group_IT_number       1

loop_
  _space_group_symop_operation_xyz
  'x, y, z'

loop_
  _atom_site_type_symbol
  _atom_site_label
  _atom_site_symmetry_multiplicity
  _atom_site_fract_x
  _atom_site_fract_y
  _atom_site_fract_z
  _atom_site_occupancy
  Li  Li1       1.0  0.17248481431488472  0.5393452113312378  0.038300869374324975  1.0000
  Li  Li2       1.0  0.021596454704194912  0.5070861648518985  0.43730455195918694  1.0000
  Li  Li3       1.0  0.33095433682183284  0.3651712938590208  0.012296486833747622  1.0000
  Li  Li4       1.0  0.944308923673816  0.07771453568420839  0.7335831401142059  1.0000
  H   H1        1.0  0.0754121266072616  0.25974538402078906  0.5473717186760041  1.0000
  H   H2        1.0  0.28515296216937713  0.7721531528513879  0.06643688178155571  1.0000
  H   H3        1.0  0.4061873048194684  0.004453432258742396  0.03276485692913411  1.0000
  H   H4        1.0  0.15866176009876654  0.3005840724799782  0.09379113070463063  1.0000
  S   S1        1.0  0.5942278899456142  0.2452314735080563  0.8388563777662057  1.0000
  S   S2        1.0  0.42116182256086176  0.12262084594112821  0.7784850411699153  1.0000
  O   O1        1.0  0.3602221263699903  0.2807247568416642  0.7002373024588451  1.0000
  O   O2        1.0  0.2798274933884386  0.3898016856983304  0.17271303258894477  1.0000
  O   O3        1.0  0.8307674384486745  0.9519338630998391  0.26496338629658567  1.0000
  O   O4        1.0  0.9513541472340421  0.620573265095345  0.058585080537795875  1.0000
  O   O5        1.0  0.5874493781921046  0.3226964803379815  0.31159241691329953  1.0000
  O   O6        1.0  0.6252741048228927  0.7785500208519807  0.6620961936860112  1.0000
  O   O7        1.0  0.5275065661453482  0.936324633870754  0.6326033569721403  1.0000
  O   O8        1.0  0.18252049251032076  0.6522016357571943  0.4787676003229535  1.0000
  O   O9        1.0  0.8544876144869704  0.16787521003789152  0.12357623846219212  1.0000
  O   O10       1.0  0.5985933522679261  0.8358569566171354  0.45914814175557694  1.0000
data_image5
_chemical_formula_structural       Li4H4S2O10
_chemical_formula_sum              "Li4 H4 S2 O10"
_cell_length_a       4.90399
_cell_length_b       5.555894000000001
_cell_length_c       8.269645510084757
_cell_angle_alpha    72.8917451750904
_cell_angle_beta     90.0
_cell_angle_gamma    90.0

_space_group_name_H-M_alt    "P 1"
_space_group_IT_number       1

loop_
  _space_group_symop_operation_xyz
  'x, y, z'

loop_
  _atom_site_type_symbol
  _atom_site_label
  _atom_site_symmetry_multiplicity
  _atom_site_fract_x
  _atom_site_fract_y
  _atom_site_fract_z
  _atom_site_occupancy
  Li  Li1       1.0  0.317963651901664  0.7654057178824587  0.7325257833508658  1.0000
  Li  Li2       1.0  0.6698933347579441  0.08719910894433269  0.39728325435771694  1.0000
  Li  Li3       1.0  0.9772176610149472  0.13771191674823058  0.13247629577108455  1.0000
  Li  Li4       1.0  0.11494403996039182  0.41739208190119825  0.06159212099737488  1.0000
  H   H1        1.0  0.9648947460518684  0.3240317370982666  0.839503376162611  1.0000
  H   H2        1.0  0.6956257407437079  0.9532831497490406  0.925768845831044  1.0000
  H   H3        1.0  0.9308096852619201  0.544705657302984  0.611351972900593  1.0000
  H   H4        1.0  0.5641785620246083  0.34455066779628396  0.08451182142016478  1.0000
  S   S1        1.0  0.5319346276810393  0.7744361269105866  0.7791476740985672  1.0000
  S   S2        1.0  0.5804708722134819  0.06644236632564571  0.7755369818769395  1.0000
  O   O1        1.0  0.9092450034804642  0.26559281672234647  0.8620162119623274  1.0000
  O   O2        1.0  0.32200699363602325  0.3918767842114903  0.051990824184031226  1.0000
  O   O3        1.0  0.3501198075018692  0.3160056293272646  0.1402368933231628  1.0000
  O   O4        1.0  0.8260605942468828  0.7913196281406272  0.020706736602733145  1.0000
  O   O5        1.0  0.842009533665987  0.1628663644369226  0.13551274265364555  1.0000
  O   O6        1.0  0.7155134109780192  0.7747087715142698  0.33945852708711755  1.0000
  O   O7        1.0  0.6580018548929729  0.5025110976312135  0.6020050529750733  1.0000
  O   O8        1.0  0.34615278463388677  0.05454200042368029  0.6063343972691655  1.0000
  O   O9        1.0  0.5623288908027462  0.6298071064447868  0.6721505320201686  1.0000
  O   O10       1.0  0.16158109206298832  0.7768172645191953  0.8172846381548879  1.0000
data_image6
_chemical_formula_structural       Li4H4S2O10
_chemical_formula_sum              "Li4 H4 S2 O10"
_cell_length_a       4.90399
_cell_length_b       5.555894000000001
_cell_length_c       8.269645510084757
_cell_angle_alpha    72.8917451750904
_cell_angle_beta     90.0
_cell_angle_gamma    90.0

_space_group_name_H-M_alt    "P 1"
_space_group_IT_number       1

loop_
  _space_group_symop_operation_xyz
  'x, y, z'

loop_
  _atom_site_type_symbol
  _atom_site_label
  _atom_site_symmetry_multiplicity
  _atom_site_fract_x
  _atom_site_fract_y
  _atom_site_fract_z
  _atom_site_occupancy
  Li  Li1       1.0  0.44986259163124487  0.5734130191958684  0.8729339419569442  1.0000
  Li  Li2       1.0  0.9352244474630425  0.7468514388074254  0.7877455159105011  1.0000
  Li  Li3       1.0  0.5830617377941962  0.1764631264086347  0.43394657829776406  1.0000
  Li  Li4       1.0  0.8373855036916211  0.7571940713678487  0.013285785898915492  1.0000
  H   H1        1.0  0.7100993465573993  0.39317704999120906  0.46386201318819076  1.0000
  H   H2        1.0  0.3516529678599909  0.4309437689371407  0.22490470588672906  1.0000
  H   H3        1.0  0.20906283878866816  0.4375201698858291  0.035800239580566995  1.0000
  H   H4        1.0  0.9756430278066546  0.70480230380781  0.5996081506455084  1.0000
  S   S1        1.0  0.8661807587486692  0.2736359044793062  0.4695446636505949  1.0000
  S   S2        1.0  0.8069198310986394  0.2473561921797227  0.6283422567648813  1.0000
  O   O1        1.0  0.6205387843656354  0.980578636052087  0.5597729636356235  1.0000
  O   O2        1.0  0.5520862622070126  0.057298152649309486  0.337381275894586  1.0000
  O   O3        1.0  0.010329560198442778  0.036199965492414776  0.26559676764009055  1.0000
  O   O4        1.0  0.4371568603255582  0.9769124691192701  0.47887705283937976  1.0000
  O   O5        1.0  0.6748174608001136  0.9659909617257654  0.9173367573162068  1.0000
  O   O6        1.0  0.7432905046734959  0.46764124887704384  0.3131337640952552  1.0000
  O   O7        1.0  0.49569483818413573  0.9308683216368081  0.8302005955738423  1.0000
  O   O8        1.0  0.8026879926910624  0.03323305680169142  0.9852970426909451  1.0000
  O   O9        1.0  0.04937596301078884  0.8522529587389727  0.02464709426931222  1.0000
  O   O10       1.0  0.9576397301425459  0.5466151443724812  0.26359547211177414  1.0000
data_image7
_chemical_formula_structural       Li4H4S2O10
_chemical_formula_sum              "Li4 H4 S2 O10"
_cell_length_a       4.90399
_cell_length_b       5.555894000000001
_cell_length_c       8.269645510084757
_cell_angle_alpha    72.8917451750904
_cell_angle_beta     90.0
_cell_angle_gamma    90.0

_space_group_name_H-M_alt    "P 1"
_space_group_IT_number       1

loop_
  _space_group_symop_operation_xyz
  'x, y, z'

loop_
  _atom_site_type_symbol
  _atom_site_label
  _atom_site_symmetry_multiplicity
  _atom_site_fract_x
  _atom_site_fract_y
  _atom_site_fract_z
  _atom_site_occupancy
  Li  Li1       1.0  0.4505577040108619  0.61819268718682  0.6687719966575969  1.0000
  Li  Li2       1.0  0.5428816746225493  0.9631207770835317  0.1699133062229521  1.0000
  Li  Li3       1.0  0.13647245708853006  0.2306277134339325  0.779028671211563  1.0000
  Li  Li4       1.0  0.6218762776697986  0.5565608482284006  0.7073489276663167  1.0000
  H   H1        1.0  0.8430615231918637  0.8206001033977373  0.11882250540656969  1.0000
  H   H2        1.0  0.6004394788760692  0.0353952506557107  0.19625603791791946  1.0000
  H   H3        1.0  0.7094256193377078  0.0501561991404742  0.9192204793216661  1.0000
  H   H4        1.0  0.5950479042949155  0.7301583555527031  0.9628362368530361  1.0000
  S   S1        1.0  0.07730207065469585  0.9085768516524695  0.29616812791937264  1.0000
  S   S2        1.0  0.21813703205407364  0.1869834520330187  0.252753799140919  1.0000
  O   O1        1.0  0.7399767303722911  0.06371543818386272  0.4052835253532976  1.0000
  O   O2        1.0  0.41125240467954427  0.9795735806692392  0.9822505833435571  1.0000
  O   O3        1.0  0.9743503417739703  0.7577579630960827  0.9411002783526783  1.0000
  O   O4        1.0  0.21961769221525174  0.19574366831147927  0.38523868120319094  1.0000
  O   O5        1.0  0.5814883982930041  0.04456823634245666  0.25805663189476036  1.0000
  O   O6        1.0  0.46605577890295535  0.6727210479948553  0.4345672481285874  1.0000
  O   O7        1.0  0.649324805883225  0.4735064442320436  0.5230499501276427  1.0000
  O   O8        1.0  0.8599409924936481  0.054559455915295985  0.053828915690246504  1.0000
  O   O9        1.0  0.7188160069854348  0.9571647099037364  0.8096567357861204  1.0000
  O   O10       1.0  0.8070686293940526  0.23110769150662236  0.29733776113425847  1.0000
data_image8
_chemical_formula_structural       Li4H4S2O10
_chemical_formula_sum              "Li4 H4 S2 O10"
_cell_length_a       4.90399
_cell_length_b       5.555894000000001
_cell_length_c       8.269645510084757
_cell_angle_alpha    72.8917451750904
_cell_angle_beta     90.0
_cell_angle_gamma    90.0

_space_group_name_H-M_alt    "P 1"
_space_group_IT_number       1

loop_
  _space_group_symop_operation_xyz
  'x, y, z'

loop_
  _atom_site_type_symbol
  _atom_site_label
  _atom_site_symmetry_multiplicity
  _atom_site_fract_x
  _atom_site_fract_y
  _atom_site_fract_z
  _atom_site_occupancy
  Li  Li1       1.0  0.9963315378554398  0.46441450864222134  0.27516862042648427  1.0000
  Li  Li2       1.0  0.49112938075631973  0.9587167675526871  0.8899865108396625  1.0000
  Li  Li3       1.0  0.8175884544034488  0.14449964836239815  0.12333840091014281  1.0000
  Li  Li4       1.0  0.6767613516421989  0.6007827813155018  0.5626666470780037  1.0000
  H   H1        1.0  0.624522085476201  0.9646491948806215  0.870956623202801  1.0000
  H   H2        1.0  0.09044251684099436  0.6212637266144156  0.5663168753962964  1.0000
  H   H3        1.0  0.8093131650239229  0.06441341078607365  0.7078838682500646  1.0000
  H   H4        1.0  0.7243903785711154  0.5083632047753781  0.5867540675099008  1.0000
  S   S1        1.0  0.4745076248946134  0.8607718358398415  0.5361204934533816  1.0000
  S   S2        1.0  0.1546334205340827  0.9986224321182817  0.35209498496260494  1.0000
  O   O1        1.0  0.7252809904748574  0.9909711165819317  0.8069061227142811  1.0000
  O   O2        1.0  0.9398011326557025  0.2957816356647527  0.9902741404657718  1.0000
  O   O3        1.0  0.6522456207458163  0.9962432089669164  0.07761200778986677  1.0000
  O   O4        1.0  0.5520858302143097  0.5201295731239952  0.6670172885642387  1.0000
  O   O5        1.0  0.7656176138862065  0.5653200860360812  0.142114569514888  1.0000
  O   O6        1.0  0.30904316960368305  0.4277337302919477  0.6605743732798146  1.0000
  O   O7        1.0  0.14922265155473724  0.2724230961975991  0.8132491131715938  1.0000
  O   O8        1.0  0.20125135272974148  0.5221795802353881  0.5688575824024156  1.0000
  O   O9        1.0  0.834184462637495  0.8403041178353305  0.6176277413519529  1.0000
  O   O10       1.0  0.22331087177735753  0.95332930481527  0.8053245228220476  1.0000
data_image9
_chemical_formula_structural       Li4H4S2O10
_chemical_formula_sum              "Li4 H4 S2 O10"
_cell_length_a       4.90399
_cell_length_b       5.555894000000001
_cell_length_c       8.269645510084757
_cell_angle_alpha    72.8917451750904
_cell_angle_beta     90.0
_cell_angle_gamma    90.0

_space_group_name_H-M_alt    "P 1"
_space_group_IT_number       1

loop_
  _space_group_symop_operation_xyz
  'x, y, z'

loop_
  _atom_site_type_symbol
  _atom_site_label
  _atom_site_symmetry_multiplicity
  _atom_site_fract_x
  _atom_site_fract_y
  _atom_site_fract_z
  _atom_site_occupancy
  Li  Li1       1.0  0.8338687931391178  0.07856305772111227  0.58137693934259  1.0000
  Li  Li2       1.0  0.6589683912679902  0.9399793213997327  0.20871824781352188  1.0000
  Li  Li3       1.0  0.295155284111388  0.3582682439009659  0.05529687454691157  1.0000
  Li  Li4       1.0  0.9220469584688544  0.6736873865593225  0.14160825169528835  1.0000
  H   H1        1.0  0.4691172881866805  0.7269206765413401  0.49395744172579725  1.0000
  H   H2        1.0  0.5525489596184343  0.8297598781064153  0.615556493983604  1.0000
  H   H3        1.0  0.29015474731568247  0.686284405644983  0.03944767650682479  1.0000
  H   H4        1.0  0.4527433109469712  0.25570972356945276  0.6028011700691422  1.0000
  S   S1        1.0  0.45341732920496725  0.27880521945189685  0.6996735973189061  1.0000
  S   S2        1.0  0.9649327461083885  0.26485214644344524  0.9221831395407207  1.0000
  O   O1        1.0  0.5663956397329457  0.33654436748474836  0.9810171456774697  1.0000
  O   O2        1.0  0.31168740417342633  0.43859741983760614  0.3229751350590959  1.0000
  O   O3        1.0  0.44887614701133316  0.9294197400377016  0.34406234186280926  1.0000
  O   O4        1.0  0.2711001928328187  0.6530242047738284  0.8380375354900025  1.0000
  O   O5        1.0  0.4936977617562661  0.5472109842667123  0.9758707977944141  1.0000
  O   O6        1.0  0.3058636665227823  0.5492928709136322  0.14434586587594822  1.0000
  O   O7        1.0  0.08435263749561273  0.7588165976703749  0.6218090000402299  1.0000
  O   O8        1.0  0.08001605464960448  0.35910614579916  0.6414651211816818  1.0000
  O   O9        1.0  0.5865747298357746  0.3129611350441337  0.6503886394657457  1.0000
  O   O10       1.0  0.16384067313629203  0.08897681499365717  0.9164129712589784  1.0000
data_image10
_chemical_formula_structural       Li4H4S2O10
_chemical_formula_sum              "Li4 H4 S2 O10"
_cell_length_a       4.90399
_cell_length_b       5.555894000000001
_cell_length_c       8.269645510084757
_cell_angle_alpha    72.8917451750904
_cell_angle_beta     90.0
_cell_angle_gamma    90.0

_space_group_name_H-M_alt    "P 1"
_space_group_IT_number       1

loop_
  _space_group_symop_operation_xyz
  'x, y, z'

loop_
  _atom_site_type_symbol
  _atom_site_label
  _atom_site_symmetry_multiplicity
  _atom_site_fract_x
  _atom_site_fract_y
  _atom_site_fract_z
  _atom_site_occupancy
  Li  Li1       1.0  0.7346167102004983  0.8636329982673487  0.06320420286283479  1.0000
  Li  Li2       1.0  0.3892848316281743  0.28570174307606067  0.7853914982533752  1.0000
  Li  Li3       1.0  0.14153706992510706  0.47518553817644715  0.7431006081751548  1.0000
  Li  Li4       1.0  0.4101687002694234  0.8727629682980478  0.9429248068481684  1.0000
  H   H1        1.0  0.3154305516509339  0.4173650505144906  0.35823315038578585  1.0000
  H   H2        1.0  0.6304957520915195  0.03695024270564318  0.6162234303774312  1.0000
  H   H3        1.0  0.08106001978740096  0.0667860065586865  0.8973477452527732  1.0000
  H   H4        1.0  0.38441691384650767  0.9690700767096132  0.28715715707221534  1.0000
  S   S1        1.0  0.39958174477214925  0.8654198331860243  0.45283635177474935  1.0000
  S   S2        1.0  0.23602466375450604  0.05655322634265758  0.5257294689072296  1.0000
  O   O1        1.0  0.8161289887793828  0.7758770221844316  0.8684956288198009  1.0000
  O   O2        1.0  0.25248014414682984  0.44197748822625726  0.5741380551480688  1.0000
  O   O3        1.0  0.5010277984515596  0.5053743644457427  0.12828716210606217  1.0000
  O   O4        1.0  0.33324274147162214  0.5229431965854019  0.07431196799734607  1.0000
  O   O5        1.0  0.9157427437712613  0.4798808365021614  0.44061195917402074  1.0000
  O   O6        1.0  0.5405229264288209  0.3881270702695474  0.681953682564199  1.0000
  O   O7        1.0  0.9643773072748445  0.813807690385147  0.25857139320760325  1.0000
  O   O8        1.0  0.3011125666089356  0.826153363159392  0.1254390450194478  1.0000
  O   O9        1.0  0.6690279358808766  0.7891234953848425  0.8101590039868825  1.0000
  O   O10       1.0  0.9900337126309751  0.4118169320281595  0.26431247057189466  1.0000
data_image11
_chemical_formula_structural       Li4H4S2O10
_chemical_formula_sum              "Li4 H4 S2 O10"
_cell_length_a       4.90399
_cell_length_b       5.555894000000001
_cell_length_c       8.269645510084757
_cell_angle_alpha    72.8917451750904
_cell_angle_beta     90.0
_cell_angle_gamma    90.0

_space_group_name_H-M_alt    "P 1"
_space_group_IT_number       1

loop_
  _space_group_symop_operation_xyz
  'x, y, z'

loop_
  _atom_site_type_symbol
  _atom_site_label
  _atom_site_symmetry_multiplicity
  _atom_site_fract_x
  _atom_site_fract_y
  _atom_site_fract_z
  _atom_site_occupancy
  Li  Li1       1.0  0.9049757761968067  0.6136099011828264  0.7354834367815783  1.0000
  Li  Li2       1.0  0.07415432448760839  0.31781601836883056  0.6978127250367834  1.0000
  Li  Li3       1.0  0.6885321284644306  0.6552823977544904  0.557580356078688  1.0000
  Li  Li4       1.0  0.040069531300105155  0.7574035045108758  0.5774265534128062  1.0000
  H   H1        1.0  0.8684953874908388  0.43834110005991533  0.5116674146847799  1.0000
  H   H2        1.0  0.17263611184898764  0.3083011042326689  0.8844000225653872  1.0000
  H   H3        1.0  0.010239181807264686  0.6767676058225334  0.18491226981859654  1.0000
  H   H4        1.0  0.7147706431569532  0.37759150099009275  0.5650142070953734  1.0000
  S   S1        1.0  0.6847159565077163  0.6008848562123603  0.6083561749801447  1.0000
  S   S2        1.0  0.8833274894568603  0.29327383151394315  0.887062588124536  1.0000
  O   O1        1.0  0.043016419309424236  0.2674445554148406  0.2817402140935883  1.0000
  O   O2        1.0  0.020413156249560416  0.9966342193365563  0.02900636155391112  1.0000
  O   O3        1.0  0.26353491823829245  0.1856760759546887  0.798657100465789  1.0000
  O   O4        1.0  0.893531547364546  0.6059640955645591  0.016798212513094768  1.0000
  O   O5        1.0  0.3852218866995827  0.43450622432283126  0.7279660558451724  1.0000
  O   O6        1.0  0.9534014944511  0.5947773065418005  0.2608147730352357  1.0000
  O   O7        1.0  0.9114711913571227  0.534488490979129  0.7661296877522545  1.0000
  O   O8        1.0  0.13458510718191974  0.9434642209671438  0.376120745902881  1.0000
  O   O9        1.0  0.674161501458002  0.9583515316750777  0.31111653112384374  1.0000
  O   O10       1.0  0.19273710905690677  0.1304965292220004  0.3602380704396637  1.0000
data_image12
_chemical_formula_structural       Li4H4S2O10
_chemical_formula_sum              "Li4 H4 S2 O10"
_cell_length_a       4.90399
_cell_length_b       5.555894000000001
_cell_length_c       8.269645510084757
_cell_angle_alpha    72.8917451750904
_cell_angle_beta     90.0
_cell_angle_gamma    90.0

_space_group_name_H-M_alt    "P 1"
_space_group_IT_number       1

loop_
  _space_group_symop_operation_xyz
  'x, y, z'

loop_
  _atom_site_type_symbol
  _atom_site_label
  _atom_site_symmetry_multiplicity
  _atom_site_fract_x
  _atom_site_fract_y
  _atom_site_fract_z
  _atom_site_occupancy
  Li  Li1       1.0  0.9154839077382348  0.5708278395886737  0.014640605122622219  1.0000
  Li  Li2       1.0  0.19655268655697  0.6463425793244824  0.22311792575237632  1.0000
  Li  Li3       1.0  0.7958577932440676  0.4103301962604746  0.423362183093559  1.0000
  Li  Li4       1.0  0.5719151145312935  0.21533358280430548  0.0168959878210444  1.0000
  H   H1        1.0  0.32383305486291647  0.20734637416899204  0.7399357821559533  1.0000
  H   H2        1.0  0.4247787466738373  0.26850908156484365  0.5157579299993813  1.0000
  H   H3        1.0  0.6180748677579686  0.4377894988283515  0.31334791681729257  1.0000
  H   H4        1.0  0.9821616136468947  0.7516491669230163  0.9452038120944053  1.0000
  S   S1        1.0  0.7559392116600065  0.7888097970280796  0.12932904192712158  1.0000
  S   S2        1.0  0.2012505656457506  0.13329117684043013  0.6454942089039832  1.0000
  O   O1        1.0  0.4401078736700583  0.4443570781731978  0.30658934329403564  1.0000
  O   O2        1.0  0.9094458890613168  0.8413600183266681  0.683497991412878  1.0000
  O   O3        1.0  0.8769546148250811  0.3371745811891742  0.4101551285129972  1.0000
  O   O4        1.0  0.3466437987735844  0.8302822065306827  0.6361968479759526  1.0000
  O   O5        1.0  0.6958828055303456  0.39552434470533626  0.5128624413100624  1.0000
  O   O6        1.0  0.4210569739516359  0.3319818085292354  0.5952106637414545  1.0000
  O   O7        1.0  0.770186104287859  0.8270084560645046  0.7828307787713129  1.0000
  O   O8        1.0  0.4353000797855202  0.12561303423717618  0.9253871034597978  1.0000
  O   O9        1.0  0.24439652052387828  0.71852664653602  0.1268226577058158  1.0000
  O   O10       1.0  0.7608247882453725  0.20235410780878738  0.10161546419840306  1.0000
data_image13
_chemical_formula_structural       Li4H4S2O10
_chemical_formula_sum              "Li4 H4 S2 O10"
_cell_length_a       4.90399
_cell_length_b       5.555894000000001
_cell_length_c       8.269645510084757
_cell_angle_alpha    72.8917451750904
_cell_angle_beta     90.0
_cell_angle_gamma    90.0

_space_group_name_H-M_alt    "P 1"
_space_group_IT_number       1

loop_
  _space_group_symop_operation_xyz
  'x, y, z'

loop_
  _atom_site_type_symbol
  _atom_site_label
  _atom_site_symmetry_multiplicity
  _atom_site_fract_x
  _atom_site_fract_y
  _atom_site_fract_z
  _atom_site_occupancy
  Li  Li1       1.0  0.6208921461075079  0.44005271867899864  0.5353626812102448  1.0000
  Li  Li2       1.0  0.6033503279541037  0.0721334552999906  0.5539783730328054  1.0000
  Li  Li3       1.0  0.28585673385532573  0.026670857216231525  0.41506961249979213  1.0000
  Li  Li4       1.0  0.3985183696495369  0.35407712624873966  0.8438378248392837  1.0000
  H   H1        1.0  0.659007194917649  0.29129778378410265  0.16174232971388847  1.0000
  H   H2        1.0  0.2156751323491335  0.8555083218961954  0.21626971592195332  1.0000
  H   H3        1.0  0.5281689403345808  0.14597474224865437  0.1984720854088664  1.0000
  H   H4        1.0  0.7155754793202505  0.3668173337355256  0.3761118418769911  1.0000
  S   S1        1.0  0.7670297746371944  0.7506139038305264  0.14736130385426804  1.0000
  S   S2        1.0  0.6514528985426296  0.5931751600583084  0.7170343297766522  1.0000
  O   O1        1.0  0.7165433321206365  0.748283966910094  0.6957882572896779  1.0000
  O   O2        1.0  0.6550507142674178  0.20414156015613116  0.891426061745733  1.0000
  O   O3        1.0  0.3585067666717805  0.2919895469676703  0.6524520996026695  1.0000
  O   O4        1.0  0.7259988938749302  0.28212702309247106  0.22918124348507263  1.0000
  O   O5        1.0  0.3921823419568682  0.7238483583423658  0.17136460173060186  1.0000
  O   O6        1.0  0.492962961725425  0.039243010454811156  0.40435524412896484  1.0000
  O   O7        1.0  0.06539830338442698  0.4940399343613535  0.4073641797876917  1.0000
  O   O8        1.0  0.35819553295732476  0.11317718162899837  0.5382998106069863  1.0000
  O   O9        1.0  0.8381852880665974  0.9009933868114786  0.22558389768346387  1.0000
  O   O10       1.0  0.48546993178933917  0.9874566174694337  0.9195787091302918  1.0000
data_image14
_chemical_formula_structural       Li4H4S2O10
_chemical_formula_sum              "Li4 H4 S2 O10"
_cell_length_a       4.90399
_cell_length_b       5.555894000000001
_cell_length_c       8.269645510084757
_cell_angle_alpha    72.8917451750904
_cell_angle_beta     90.0
_cell_angle_gamma    90.0

_space_group_name_H-M_alt    "P 1"
_space_group_IT_number       1

loop_
  _space_group_symop_operation_xyz
  'x, y, z'

loop_
  _atom_site_type_symbol
  _atom_site_label
  _atom_site_symmetry_multiplicity
  _atom_site_fract_x
  _atom_site_fract_y
  _atom_site_fract_z
  _atom_site_occupancy
  Li  Li1       1.0  0.599794869980542  0.29413132703666633  0.512691486888798  1.0000
  Li  Li2       1.0  0.5116215961534181  0.09533887165252963  0.20025741912832018  1.0000
  Li  Li3       1.0  0.45142773701809347  0.3395272970665246  0.15965797117678449  1.0000
  Li  Li4       1.0  0.9658620606642216  0.5384859541954938  0.44597233325475827  1.0000
  H   H1        1.0  0.4358296734280884  0.4803817105712369  0.8165132419671863  1.0000
  H   H2        1.0  0.5925670914584771  0.5413199001923203  0.16733105608727783  1.0000
  H   H3        1.0  0.8967563890619203  0.0032368921674788  0.19621290150098503  1.0000
  H   H4        1.0  0.15716847439762205  0.08267221739515662  0.7391874078894034  1.0000
  S   S1        1.0  0.6893697765772231  0.8957048234588001  0.6647254731651628  1.0000
  S   S2        1.0  0.7267327740119072  0.9655519669468049  0.16191423864802346  1.0000
  O   O1        1.0  0.850753924169112  0.28585050953552127  0.1765465812641196  1.0000
  O   O2        1.0  0.7951526737306267  0.6952489735849667  0.4534870340139605  1.0000
  O   O3        1.0  0.6539603559940588  0.9858923354186118  0.9577173862344353  1.0000
  O   O4        1.0  0.7992548862966942  0.8988216440193355  0.11452825475134887  1.0000
  O   O5        1.0  0.42856332812516484  0.4826153851026902  0.5799846489062475  1.0000
  O   O6        1.0  0.7678294840152375  0.7073937559034675  0.978942264453508  1.0000
  O   O7        1.0  0.08835730166174471  0.7926603739906568  0.316166709351819  1.0000
  O   O8        1.0  0.20431715721497312  0.10289461311185732  0.632939595496282  1.0000
  O   O9        1.0  0.021338642840419197  0.15356960890267146  0.4341662730112148  1.0000
  O   O10       1.0  0.6558796027748031  0.052385029848665  0.5288765254808823  1.0000
data_image15
_chemical_formula_structural       Li4H4S2O10
_chemical_formula_sum              "Li4 H4 S2 O10"
_cell_length_a       4.90399
_cell_length_b       5.555894000000001
_cell_length_c       8.269645510084757
_cell_angle_alpha    72.8917451750904
_cell_angle_beta     90.0
_cell_angle_gamma    90.0

_space_group_name_H-M_alt    "P 1"
_space_group_IT_number       1

loop_
  _space_group_symop_operation_xyz
  'x, y, z'

loop_
  _atom_site_type_symbol
  _atom_site_label
  _atom_site_symmetry_multiplicity
  _atom_site_fract_x
  _atom_site_fract_y
  _atom_site_fract_z
  _atom_site_occupancy
  Li  Li1       1.0  0.24207282694987953  0.4302754406671738  0.6422046751995367  1.0000
  Li  Li2       1.0  0.8629627202681149  0.468364680878949  0.7516752149404056  1.0000
  Li  Li3       1.0  0.6053365027182736  0.3079871056834236  0.7951961815124378  1.0000
  Li  Li4       1.0  0.9184977932600304  0.2702689502912108  0.3354511903016828  1.0000
  H   H1        1.0  0.10083550307899714  0.7217652585823089  0.7252556879539043  1.0000
  H   H2        1.0  0.2757743688998744  0.43679358530789614  0.5852968660183251  1.0000
  H   H3        1.0  0.15793658455368131  0.8821491436101496  0.1510901632718742  1.0000
  H   H4        1.0  0.8428935777046718  0.19865407748147845  0.8104136778856628  1.0000
  S   S1        1.0  0.6846777648606803  0.6376982174406294  0.9423119455750566  1.0000
  S   S2        1.0  0.6980792571557686  0.5118287564255297  0.4319747460540384  1.0000
  O   O1        1.0  0.43036832491634414  0.8597206666599959  0.658587240264751  1.0000
  O   O2        1.0  0.19157074706163257  0.8039666628028499  0.024700968235265464  1.0000
  O   O3        1.0  0.9349743039347231  0.0908344202907756  0.47287426273396704  1.0000
  O   O4        1.0  0.0733380150195444  0.29894327628426254  0.8418111008359119  1.0000
  O   O5        1.0  0.2905827229278657  0.17622240373748355  0.326368689595256  1.0000
  O   O6        1.0  0.10555029779789038  0.5928854162339121  0.08566429151687771  1.0000
  O   O7        1.0  0.620399851934053  0.5436931784497574  0.1578629642026499  1.0000
  O   O8        1.0  0.9584879637695849  0.42195468820864335  0.09735765401273966  1.0000
  O   O9        1.0  0.27004950579066644  0.1979628633844186  0.7253924751585146  1.0000
  O   O10       1.0  0.0012829518382204697  0.41439571662340313  0.18417750680237077  1.0000
data_image16
_chemical_formula_structural       Li4H4S2O10
_chemical_formula_sum              "Li4 H4 S2 O10"
_cell_length_a       4.90399
_cell_length_b       5.555894000000001
_cell_length_c       8.269645510084757
_cell_angle_alpha    72.8917451750904
_cell_angle_beta     90.0
_cell_angle_gamma    90.0

_space_group_name_H-M_alt    "P 1"
_space_group_IT_number       1

loop_
  _space_group_symop_operation_xyz
  'x, y, z'

loop_
  _atom_site_type_symbol
  _atom_site_label
  _atom_site_symmetry_multiplicity
  _atom_site_fract_x
  _atom_site_fract_y
  _atom_site_fract_z
  _atom_site_occupancy
  Li  Li1       1.0  0.4036958627984859  0.11124968668445945  0.25218915264997577  1.0000
  Li  Li2       1.0  0.9311323832644121  0.7352115832909476  0.17620138798156404  1.0000
  Li  Li3       1.0  0.01696419157087803  0.6673144937958568  0.3475956649053842  1.0000
  Li  Li4       1.0  0.1789021729491651  0.9428442833304871  0.6522290935390629  1.0000
  H   H1        1.0  0.735300047788769  0.7734525594860315  0.04608647816348821  1.0000
  H   H2        1.0  0.4122286543715745  0.31289580650627613  0.12791859125718474  1.0000
  H   H3        1.0  0.7765144280856475  0.9909704574383795  0.036064976011402905  1.0000
  H   H4        1.0  0.7074990229448304  0.41857696045190096  0.27051988936727867  1.0000
  S   S1        1.0  0.6254850114346482  0.12258744277642109  0.47716077708173543  1.0000
  S   S2        1.0  0.23843285057228059  0.9370880878122989  0.7669680375256576  1.0000
  O   O1        1.0  0.8770690539386123  0.9216760083800182  0.7622277704067528  1.0000
  O   O2        1.0  0.2619025963358581  0.20040146078099497  0.8185172725352459  1.0000
  O   O3        1.0  0.9159624852472916  0.05645415454637259  0.1799824206646008  1.0000
  O   O4        1.0  0.678644232073566  0.6366720797959715  0.9399778296938166  1.0000
  O   O5        1.0  0.06051769723671896  0.8241654527810169  0.7480435851139191  1.0000
  O   O6        1.0  0.6401119803485926  0.7872331404360011  0.6768091764533892  1.0000
  O   O7        1.0  0.3202668266603723  0.0307531890575774  0.0354138144175522  1.0000
  O   O8        1.0  0.6275059168692678  0.004234618856571615  0.6435401472263038  1.0000
  O   O9        1.0  0.34949670000059996  0.9890110736942006  0.9133050030104641  1.0000
  O   O10       1.0  0.7455740152654471  0.8853885859716684  0.663064948603278  1.0000
data_image17
_chemical_formula_structural       Li4H4S2O10
_chemical_formula_sum              "Li4 H4 S2 O10"
_cell_length_a       4.90399
_cell_length_b       5.555894000000001
_cell_length_c       8.269645510084757
_cell_angle_alpha    72.8917451750904
_cell_angle_beta     90.0
_cell_angle_gamma    90.0

_space_group_name_H-M_alt    "P 1"
_space_group_IT_number       1

loop_
  _space_group_symop_operation_xyz
  'x, y, z'

loop_
  _atom_site_type_symbol
  _atom_site_label
  _atom_site_symmetry_multiplicity
  _atom_site_fract_x
  _atom_site_fract_y
  _atom_site_fract_z
  _atom_site_occupancy
  Li  Li1       1.0  0.06559689913410693  0.7536632007249864  0.7172685185346381  1.0000
  Li  Li2       1.0  0.5214196715314756  0.6870283374300925  0.676654292656167  1.0000
  Li  Li3       1.0  0.4528538134181872  0.3682694297749549  0.049851081566885114  1.0000
  Li  Li4       1.0  0.25964262580964714  0.994562942214543  0.7880621445074212  1.0000
  H   H1        1.0  0.2847774252295494  0.5017986183520406  0.14241991937160492  1.0000
  H   H2        1.0  0.8196634671185166  0.3459200793877244  0.16619507921859622  1.0000
  H   H3        1.0  0.3833226776914671  0.2847070647403598  0.7830116336699575  1.0000
  H   H4        1.0  0.06800058577209711  0.7180160938296467  0.36360338458325714  1.0000
  S   S1        1.0  0.08075745953829028  0.8692044759227429  0.8060375441564247  1.0000
  S   S2        1.0  0.010843690193723887  0.07257346459664404  0.17334679391933605  1.0000
  O   O1        1.0  0.02935062427422963  0.8585470204707235  0.9308682155096903  1.0000
  O   O2        1.0  0.6937500779749826  0.4059010689088609  0.6658874467248097  1.0000
  O   O3        1.0  0.6767507166950963  0.8407283601118252  0.33292897420051304  1.0000
  O   O4        1.0  0.9084617098123999  0.876120371860452  0.9397761580185033  1.0000
  O   O5        1.0  0.7277200573262235  0.1675054834850016  0.4621079025018844  1.0000
  O   O6        1.0  0.2967369722027797  0.7693122070049867  0.5889945145463571  1.0000
  O   O7        1.0  0.9078923098277301  0.337861257547047  0.929092887963634  1.0000
  O   O8        1.0  0.04135837533976883  0.8075815681368113  0.9552585587371141  1.0000
  O   O9        1.0  0.33465046775745577  0.5445785148003779  0.20813875566818751  1.0000
  O   O10       1.0  0.4741870573780034  0.9459321398171596  0.9148514214903116  1.0000
data_image18
_chemical_formula_structural       Li4H4S2O10
_chemical_formula_sum              "Li4 H4 S2 O10"
_cell_length_a       4.90399
_cell_length_b       5.555894000000001
_cell_length_c       8.269645510084757
_cell_angle_alpha    72.8917451750904
_cell_angle_beta     90.0
_cell_angle_gamma    90.0

_space_group_name_H-M_alt    "P 1"
_space_group_IT_number       1

loop_
  _space_group_symop_operation_xyz
  'x, y, z'

loop_
  _atom_site_type_symbol
  _atom_site_label
  _atom_site_symmetry_multiplicity
  _atom_site_fract_x
  _atom_site_fract_y
  _atom_site_fract_z
  _atom_site_occupancy
  Li  Li1       1.0  0.5806734701036476  0.2069924941752106  0.11915835173203959  1.0000
  Li  Li2       1.0  0.9930796599728637  0.5854341776721412  0.39195614870186546  1.0000
  Li  Li3       1.0  0.3653565421118401  0.33107621187809855  0.5281757783377543  1.0000
  Li  Li4       1.0  0.9166487248730846  0.1856314068136271  0.5975141971139237  1.0000
  H   H1        1.0  0.7246275576762855  0.12882796162739396  0.9117813351331279  1.0000
  H   H2        1.0  0.6357487250352278  0.7382806511595845  0.48593122721649706  1.0000
  H   H3        1.0  0.5592019084142521  0.43192197335883975  0.3940803110599518  1.0000
  H   H4        1.0  0.11813717021141201  0.7416860545054078  0.3706959215924144  1.0000
  S   S1        1.0  0.04663600161438808  0.5611950114835054  0.7276011146022938  1.0000
  S   S2        1.0  0.4860268131014891  0.03759182745125145  0.8743409584276378  1.0000
  O   O1        1.0  0.19607705809175968  0.38153657875955105  0.35357696295250207  1.0000
  O   O2        1.0  0.6941577522084117  0.6748972813657019  0.6354358306271024  1.0000
  O   O3        1.0  0.7868471202964429  0.42517856101039797  0.6590701739451106  1.0000
  O   O4        1.0  0.5572952327493113  0.27173646108713  0.49307346844580024  1.0000
  O   O5        1.0  0.23889561218675226  0.7759275033167796  0.9705416848155437  1.0000
  O   O6        1.0  0.5565290893719066  0.662951557082124  0.3458535009413026  1.0000
  O   O7        1.0  0.325485932873562  0.6991502576856874  0.6441510076983832  1.0000
  O   O8        1.0  0.6405535145022441  0.3014286368852481  0.3712866073474288  1.0000
  O   O9        1.0  0.9869595317450148  0.2732500635283941  0.20972504073870368  1.0000
  O   O10       1.0  0.0045722758222837  0.32566739508183673  0.2993260778748663  1.0000
data_image19
_chemical_formula_structural       Li4H4S2O10
_chemical_formula_sum              "Li4 H4 S2 O10"
_cell_length_a       4.90399
_cell_length_b       5.555894000000001
_cell_length_c       8.269645510084757
_cell_angle_alpha    72.8917451750904
_cell_angle_beta     90.0
_cell_angle_gamma    90.0

_space_group_name_H-M_alt    "P 1"
_space_group_IT_number       1

loop_
  _space_group_symop_operation_xyz
  'x, y, z'

loop_
  _atom_site_type_symbol
  _atom_site_label
  _atom_site_symmetry_multiplicity
  _atom_site_fract_x
  _atom_site_fract_y
  _atom_site_fract_z
  _atom_site_occupancy
  Li  Li1       1.0  0.6873737183341291  0.1242977934962255  0.7405628066312602  1.0000
  Li  Li2       1.0  0.8109088699420681  0.24456512367760297  0.4391787067252153  1.0000
  Li  Li3       1.0  0.548497739539016  0.7095570198725909  0.5490654781460762  1.0000
  Li  Li4       1.0  0.06780389812774956  0.4799166852062626  0.5827909104991704  1.0000
  H   H1        1.0  0.19225242780521512  0.9183367232326418  0.600044981110841  1.0000
  H   H2        1.0  0.28406160953454673  0.926472183316946  0.8253358508227393  1.0000
  H   H3        1.0  0.3711956039769575  0.1923596034757793  0.35747190029360354  1.0000
  H   H4        1.0  0.6291028521955013  0.7749983647372574  0.356382163008675  1.0000
  S   S1        1.0  0.23962068965192884  0.5959519992175046  0.030830290139419958  1.0000
  S   S2        1.0  0.8113632470485754  0.6734521452453919  0.17995355592574924  1.0000
  O   O1        1.0  0.7710635326220654  0.3175561788957566  0.4805230434285477  1.0000
  O   O2        1.0  0.7501518747303635  0.07831556774908677  0.5451324949390255  1.0000
  O   O3        1.0  0.4079287575732451  0.14980020036455244  0.9356209687321098  1.0000
  O   O4        1.0  0.9220221437280998  0.3801694398280233  0.5905858824262396  1.0000
  O   O5        1.0  0.0071480408805655316  0.7042445796978427  0.527282923409075  1.0000
  O   O6        1.0  0.04412737570237368  0.9411845814902335  0.5700462885433808  1.0000
  O   O7        1.0  0.5942345991497859  0.8525778587500099  0.11911673139547929  1.0000
  O   O8        1.0  0.6465950680430979  0.06930672831367701  0.5050022220239043  1.0000
  O   O9        1.0  0.4511470819998067  0.34899715529900277  0.4632011718713329  1.0000
  O   O10       1.0  0.35587366836261936  0.27553623798303306  0.38263050248497166  1.0000
data_image20
_chemical_formula_structural       Li4H4S2O10
_chemical_formula_sum              "Li4 H4 S2 O10"
_cell_length_a       4.90399
_cell_length_b       5.555894000000001
_cell_length_c       8.269645510084757
_cell_angle_alpha    72.8917451750904
_cell_angle_beta     90.0
_cell_angle_gamma    90.0

_space_group_name_H-M_alt    "P 1"
_space_group_IT_number       1

loop_
  _space_group_symop_operation_xyz
  'x, y, z'

loop_
  _atom_site_type_symbol
  _atom_site_label
  _atom_site_symmetry_multiplicity
  _atom_site_fract_x
  _atom_site_fract_y
  _atom_site_fract_z
  _atom_site_occupancy
  Li  Li1       1.0  0.9357300103874877  0.7618014351319289  0.3680367807392031  1.0000
  Li  Li2       1.0  0.864119231046061  0.2626164233952295  0.25828649209506693  1.0000
  Li  Li3       1.0  0.09350283636013046  0.3817762585822493  0.7120894846739247  1.0000
  Li  Li4       1.0  0.43736226903274655  0.9251322180498391  0.23128216748591512  1.0000
  H   H1        1.0  0.09295055642724037  0.23729815147817135  0.2748775111977011  1.0000
  H   H2        1.0  0.4575598043156788  0.179668758995831  0.9861633932450786  1.0000
  H   H3        1.0  0.399785244371742  0.6173615232110023  0.3208695270586759  1.0000
  H   H4        1.0  0.6950947304721922  0.2555120375473052  0.9733144629281014  1.0000
  S   S1        1.0  0.13475868705427274  0.04707590222824365  0.423700125713367  1.0000
  S   S2        1.0  0.11413184882258065  0.37272116978419945  0.43996031512506306  1.0000
  O   O1        1.0  0.19859946714132093  0.3762556917499751  0.23047706740908325  1.0000
  O   O2        1.0  0.016795262694358826  0.004989498673239723  0.10756741318618879  1.0000
  O   O3        1.0  0.2860376351745799  0.5362075563753024  0.5985132253117627  1.0000
  O   O4        1.0  0.9186699732381385  0.5186204063938931  0.804831206885865  1.0000
  O   O5        1.0  0.7118671947828261  0.05658052788930945  0.7989940367988311  1.0000
  O   O6        1.0  0.24617756667430513  0.3417181026889011  0.7196760633960366  1.0000
  O   O7        1.0  0.1332244920777157  0.90746322250925  0.9730823425925337  1.0000
  O   O8        1.0  0.42269273864803836  0.9882619832642376  0.5147797578247264  1.0000
  O   O9        1.0  0.9812726471755013  0.3445999942741764  0.6499449517723406  1.0000
  O   O10       1.0  0.8275099378661253  0.963774606178049  0.27529770896944683  1.0000
data_image21
_chemical_formula_structural       Li4H4S2O10
_chemical_formula_sum              "Li4 H4 S2 O10"
_cell_length_a       4.90399
_cell_length_b       5.555894000000001
_cell_length_c       8.269645510084757
_cell_angle_alpha    72.8917451750904
_cell_angle_beta     90.0
_cell_angle_gamma    90.0

_space_group_name_H-M_alt    "P 1"
_space_group_IT_number       1

loop_
  _space_group_symop_operation_xyz
  'x, y, z'

loop_
  _atom_site_type_symbol
  _atom_site_label
  _atom_site_symmetry_multiplicity
  _atom_site_fract_x
  _atom_site_fract_y
  _atom_site_fract_z
  _atom_site_occupancy
  Li  Li1       1.0  0.20415362634230405  0.36930497153662145  0.37703470565611497  1.0000
  Li  Li2       1.0  0.025060856620257255  0.056989330441865604  0.53653087910061  1.0000
  Li  Li3       1.0  0.8257424074108712  0.36611240229103714  0.24330467567779124  1.0000
  Li  Li4       1.0  0.3547836663783528  0.05395667252741987  0.22329953088774346  1.0000
  H   H1        1.0  0.6148970578797162  0.16044472611974925  0.8990300979930907  1.0000
  H   H2        1.0  0.6698714930098504  0.7099647554568946  0.26795680017676204  1.0000
  H   H3        1.0  0.008232889464125037  0.6167691731825471  0.9760402648244053  1.0000
  H   H4        1.0  0.7099988334812224  0.10575710260309279  0.0741815532092005  1.0000
  S   S1        1.0  0.650376585603226  0.7672184224647935  0.07991318678250536  1.0000
  S   S2        1.0  0.08809078228659928  0.44465331319952384  0.1175807457184419  1.0000
  O   O1        1.0  0.5287381153611932  0.346565802115947  0.6601813868619502  1.0000
  O   O2        1.0  0.3954229042865336  0.17602819355670363  0.0032063935068435967  1.0000
  O   O3        1.0  0.8160466072731651  0.05223068024497479  0.7940456894846193  1.0000
  O   O4        1.0  0.9821311235573376  0.185188242001459  0.7187297928321641  1.0000
  O   O5        1.0  0.7719919093578937  0.874902036957792  0.00344861154735554  1.0000
  O   O6        1.0  0.508470006781863  0.5616478921147063  0.27337240136694163  1.0000
  O   O7        1.0  0.640560019412078  0.2592474848497659  0.4420445385039784  1.0000
  O   O8        1.0  0.013913072674768046  0.20013906044187024  0.093622459564358  1.0000
  O   O9        1.0  0.7585570492756233  0.5708653727851924  0.6977883900108282  1.0000
  O   O10       1.0  0.887725039588986  0.1134669148013927  0.1949189181177644  1.0000
data_image22
_chemical_formula_structural       Li4H4S2O10
_chemical_formula_sum              "Li4 H4 S2 O10"
_cell_length_a       4.90399
_cell_length_b       5.555894000000001
_cell_length_c       8.269645510084757
_cell_angle_alpha    72.8917451750904
_cell_angle_beta     90.0
_cell_angle_gamma    90.0

_space_group_name_H-M_alt    "P 1"
_space_group_IT_number       1

loop_
  _space_group_symop_operation_xyz
  'x, y, z'

loop_
  _atom_site_type_symbol
  _atom_site_label
  _atom_site_symmetry_multiplicity
  _atom_site_fract_x
  _atom_site_fract_y
  _atom_site_fract_z
  _atom_site_occupancy
  Li  Li1       1.0  0.811041890643537  0.40006991813424975  0.963885220582597  1.0000
  Li  Li2       1.0  0.33150785075849853  0.6912072406921652  0.20227993129083188  1.0000
  Li  Li3       1.0  0.6891002011834644  0.5546059412881732  0.8020666234660894  1.0000
  Li  Li4       1.0  0.776889342465438  0.3752640707480168  0.3683329079649411  1.0000
  H   H1        1.0  0.6256687813438475  0.44434667471796274  0.26124159700702876  1.0000
  H   H2        1.0  0.6460412679007277  0.9790872437879443  0.3638479532673955  1.0000
  H   H3        1.0  0.030729063088074327  0.5969322980381548  0.41250203747767955  1.0000
  H   H4        1.0  0.2252045590430498  0.4631989917252213  0.5722478654060978  1.0000
  S   S1        1.0  0.4735267025534995  0.5700830079731531  0.23372276170994155  1.0000
  S   S2        1.0  0.20379994976246962  0.6627755096415058  0.7134766709641553  1.0000
  O   O1        1.0  0.5576946129731368  0.9979263852583244  0.5097562511800788  1.0000
  O   O2        1.0  0.08528841426596045  0.32456907015875913  0.6854853106779046  1.0000
  O   O3        1.0  0.2533981854794547  0.3944161385297775  0.826687764536473  1.0000
  O   O4        1.0  0.8935923415701836  0.8428418844705448  0.1495526590733789  1.0000
  O   O5        1.0  0.5407835727237398  0.5262924566777656  0.3539749202027451  1.0000
  O   O6        1.0  0.8811598937900271  0.9447486604331061  0.8396271904930472  1.0000
  O   O7        1.0  0.09514229267369956  0.03182981061399914  0.37111451505916193  1.0000
  O   O8        1.0  0.9369573981675785  0.29552978120045736  0.0452191571239382  1.0000
  O   O9        1.0  0.9013432556785119  0.07940160909470251  0.9383137127515511  1.0000
  O   O10       1.0  0.8600875202100724  0.37540203775279224  0.2755648341408232  1.0000
data_image23
_chemical_formula_structural       Li4H4S2O10
_chemical_formula_sum              "Li4 H4 S2 O10"
_cell_length_a       4.90399
_cell_length_b       5.555894000000001
_cell_length_c       8.269645510084757
_cell_angle_alpha    72.8917451750904
_cell_angle_beta     90.0
_cell_angle_gamma    90.0

_space_group_name_H-M_alt    "P 1"
_space_group_IT_number       1

loop_
  _space_group_symop_operation_xyz
  'x, y, z'

loop_
  _atom_site_type_symbol
  _atom_site_label
  _atom_site_symmetry_multiplicity
  _atom_site_fract_x
  _atom_site_fract_y
  _atom_site_fract_z
  _atom_site_occupancy
  Li  Li1       1.0  0.22816554049495608  0.03416722465772182  0.026282222534064204  1.0000
  Li  Li2       1.0  0.761144357464218  0.913700057339156  0.9401174077902397  1.0000
  Li  Li3       1.0  0.03467534307856113  0.6771683793049306  0.6502887904644012  1.0000
  Li  Li4       1.0  0.5238754617748782  0.04678604140644893  0.2452273544331547  1.0000
  H   H1        1.0  0.8874821485951543  0.3502762143034488  0.17566031345631927  1.0000
  H   H2        1.0  0.981796657317318  0.7695511262863874  0.9955444115912542  1.0000
  H   H3        1.0  0.6330144028179348  0.801919708494097  0.8899901416152716  1.0000
  H   H4        1.0  0.778042420046404  0.6515732638072222  0.2821490658679977  1.0000
  S   S1        1.0  0.07056176755577326  0.6999479932710528  0.7096112578292377  1.0000
  S   S2        1.0  0.09599285332660656  0.22471488510200288  0.535335094697075  1.0000
  O   O1        1.0  0.45342970435740426  0.7827458004467189  0.686111427785363  1.0000
  O   O2        1.0  0.3869044797029346  0.7753647650242783  0.7837227301497478  1.0000
  O   O3        1.0  0.0789205824257806  0.791726119350642  0.40479404023790266  1.0000
  O   O4        1.0  0.5436012356803985  0.6039602996315807  0.5799650679400656  1.0000
  O   O5        1.0  0.5165334908961086  0.7640137696580496  0.48921567550860345  1.0000
  O   O6        1.0  0.6518895389162935  0.6319766115630046  0.6911328192218207  1.0000
  O   O7        1.0  0.7884185794973746  0.3874062000249978  0.671054933744017  1.0000
  O   O8        1.0  0.571872800210258  0.6429472652962431  0.2258979162434116  1.0000
  O   O9        1.0  0.4102523210749496  0.7008266694901977  0.23187984142168716  1.0000
  O   O10       1.0  0.4872306687757373  0.911638242425397  0.5671110748808132  1.0000
data_image24
_chemical_formula_structural       Li4H4S2O10
_chemical_formula_sum              "Li4 H4 S2 O10"
_cell_length_a       4.90399
_cell_length_b       5.555894000000001
_cell_length_c       8.269645510084757
_cell_angle_alpha    72.8917451750904
_cell_angle_beta     90.0
_cell_angle_gamma    90.0

_space_group_name_H-M_alt    "P 1"
_space_group_IT_number       1

loop_
  _space_group_symop_operation_xyz
  'x, y, z'

loop_
  _atom_site_type_symbol
  _atom_site_label
  _atom_site_symmetry_multiplicity
  _atom_site_fract_x
  _atom_site_fract_y
  _atom_site_fract_z
  _atom_site_occupancy
  Li  Li1       1.0  0.3712658100994304  0.07456066313898191  0.16577576741110533  1.0000
  Li  Li2       1.0  0.7687572425056715  0.8022001039789757  0.6184161629462324  1.0000
  Li  Li3       1.0  0.20967072783969343  0.2205728559056297  0.4828264572424814  1.0000
  Li  Li4       1.0  0.6347423903644085  0.5477666070801206  0.8813118016114458  1.0000
  H   H1        1.0  0.48978322884067893  0.020510387141257524  0.08414813433773816  1.0000
  H   H2        1.0  0.5686744630220346  0.6706801950931549  0.6336216914933175  1.0000
  H   H3        1.0  0.1716752842767164  0.13487254735082388  0.5964971202192828  1.0000
  H   H4        1.0  0.28509336698334664  0.559633118333295  0.4457399413222447  1.0000
  S   S1        1.0  0.0961506167659536  0.9270008053281344  0.7195792330021504  1.0000
  S   S2        1.0  0.001916088192956522  0.17734956760250498  0.12007127719698474  1.0000
  O   O1        1.0  0.7758144537801854  0.17334129777736962  0.5538074701325968  1.0000
  O   O2        1.0  0.9127831821097061  0.3840444947127253  0.3404419133148622  1.0000
  O   O3        1.0  0.9266171311610378  0.802192356903106  0.5747737701021833  1.0000
  O   O4        1.0  0.9523510670405813  0.8746208236552775  0.6717973262420855  1.0000
  O   O5        1.0  0.14299277080863249  0.5224205889317091  0.8111787981688394  1.0000
  O   O6        1.0  0.4941854961507488  0.5933124726871029  0.16704577661585063  1.0000
  O   O7        1.0  0.286071774084121  0.41521924786502495  0.30255562462843955  1.0000
  O   O8        1.0  0.5903293530573137  0.5801135895890184  0.3169587618904188  1.0000
  O   O9        1.0  0.2763467229960952  0.47588695123340585  0.5514054561645025  1.0000
  O   O10       1.0  0.07473944430239499  0.5596339202020317  0.30402316998515744  1.0000
data_image25
_chemical_formula_structural       Li4H4S2O10
_chemical_formula_sum              "Li4 H4 S2 O10"
_cell_length_a       4.90399
_cell_length_b       5.555894000000001
_cell_length_c       8.269645510084757
_cell_angle_alpha    72.8917451750904
_cell_angle_beta     90.0
_cell_angle_gamma    90.0

_space_group_name_H-M_alt    "P 1"
_space_group_IT_number       1

loop_
  _space_group_symop_operation_xyz
  'x, y, z'

loop_
  _atom_site_type_symbol
  _atom_site_label
  _atom_site_symmetry_multiplicity
  _atom_site_fract_x
  _atom_site_fract_y
  _atom_site_fract_z
  _atom_site_occupancy
  Li  Li1       1.0  0.03509530215524137  0.10943160654278472  0.5422143698087893  1.0000
  Li  Li2       1.0  0.2338745209708577  0.5624965481401887  0.9651985267701093  1.0000
  Li  Li3       1.0  0.7810491961427033  0.6494582003215328  0.05002179846633226  1.0000
  Li  Li4       1.0  0.7660018256865442  0.11985270434524864  0.9480688087060116  1.0000
  H   H1        1.0  0.059109042631462216  0.49071809905581176  0.19522477954160422  1.0000
  H   H2        1.0  0.4836944281705655  0.8548339223489165  0.979128569480963  1.0000
  H   H3        1.0  0.3352719892282039  0.8383069070987403  0.967006909660995  1.0000
  H   H4        1.0  0.3478490656707436  0.5385856500361115  0.4297372098080814  1.0000
  S   S1        1.0  0.8296008933102712  0.749649108707672  0.8429088887642138  1.0000
  S   S2        1.0  0.34271805733442307  0.6827592692570761  0.9985217615612783  1.0000
  O   O1        1.0  0.34924701481941156  0.5487018667627126  0.04903848719550297  1.0000
  O   O2        1.0  0.28325623366981745  0.5972017313761171  0.5884372706350405  1.0000
  O   O3        1.0  0.4264517007395625  0.13032730761915445  0.6302321927651064  1.0000
  O   O4        1.0  0.6471414236439159  0.1709188943495974  0.8808327191509306  1.0000
  O   O5        1.0  0.16535357979591936  0.27564147001248784  0.6901808898692252  1.0000
  O   O6        1.0  0.8878797511279117  0.864057048689574  0.6469371725688688  1.0000
  O   O7        1.0  0.6908058356493711  0.33326090572518297  0.15343283402035013  1.0000
  O   O8        1.0  0.22708644982776605  0.23134961887262762  0.6628109760349616  1.0000
  O   O9        1.0  0.6256327742303256  0.27781725818567793  0.22359655566106085  1.0000
  O   O10       1.0  0.08415720768971369  0.75482358870795  0.0018286380363861099  1.0000
data_image26
_chemical_formula_structural       Li4H4S2O10
_chemical_formula_sum              "Li4 H4 S2 O10"
_cell_length_a       4.90399
_cell_length_b       5.555894000000001
_cell_length_c       8.269645510084757
_cell_angle_alpha    72.8917451750904
_cell_angle_beta     90.0
_cell_angle_gamma    90.0

_space_group_name_H-M_alt    "P 1"
_space_group_IT_number       1

loop_
  _space_group_symop_operation_xyz
  'x, y, z'

loop_
  _atom_site_type_symbol
  _atom_site_label
  _atom_site_symmetry_multiplicity
  _atom_site_fract_x
  _atom_site_fract_y
  _atom_site_fract_z
  _atom_site_occupancy
  Li  Li1       1.0  0.28694976679980755  0.25932829605881125  0.9246583482599817  1.0000
  Li  Li2       1.0  0.5868443711297004  0.05509145888208877  0.6180332981275569  1.0000
  Li  Li3       1.0  0.9997287123114802  0.6512748877285048  0.07657925377134234  1.0000
  Li  Li4       1.0  0.9161944109946489  0.7178050960064866  0.006985019630519673  1.0000
  H   H1        1.0  0.18274720013141632  0.228981003863737  0.5234161416301504  1.0000
  H   H2        1.0  0.6721818876685575  0.6234684633091092  0.08602784830145538  1.0000
  H   H3        1.0  0.9527968491893262  0.8715733168646693  0.7745607305550948  1.0000
  H   H4        1.0  0.2771200150018558  0.7304611918516457  0.5881170982029289  1.0000
  S   S1        1.0  0.5357550068874843  0.0022245626896619797  0.3684848893317394  1.0000
  S   S2        1.0  0.7408946217619814  0.9759555656346492  0.21722996170865372  1.0000
  O   O1        1.0  0.5810717091080733  0.8387806136161089  0.9071233017893974  1.0000
  O   O2        1.0  0.675492008915171  0.8637613364844583  0.656627665302949  1.0000
  O   O3        1.0  0.027961606567259878  0.268722856300883  0.4174572001793422  1.0000
  O   O4        1.0  0.7921631481149234  0.15409077011281624  0.19678579294122756  1.0000
  O   O5        1.0  0.1646168967417907  0.8679296547488775  0.8964574276906205  1.0000
  O   O6        1.0  0.23031397466547787  0.4910642213653773  0.9125947372522205  1.0000
  O   O7        1.0  0.3236314606619999  0.4940416862955317  0.18169866100652143  1.0000
  O   O8        1.0  0.578731348272413  0.4700494952267036  0.3392410521628335  1.0000
  O   O9        1.0  0.5877776899724267  0.5834710325361812  0.48640556866303086  1.0000
  O   O10       1.0  0.09793185463058762  0.8833424440235831  0.9083687418606132  1.0000
data_image27
_chemical_formula_structural       Li4H4S2O10
_chemical_formula_sum              "Li4 H4 S2 O10"
_cell_length_a       4.90399
_cell_length_b       5.555894000000001
_cell_length_c       8.269645510084757
_cell_angle_alpha    72.8917451750904
_cell_angle_beta     90.0
_cell_angle_gamma    90.0

_space_group_name_H-M_alt    "P 1"
_space_group_IT_number       1

loop_
  _space_group_symop_operation_xyz
  'x, y, z'

loop_
  _atom_site_type_symbol
  _atom_site_label
  _atom_site_symmetry_multiplicity
  _atom_site_fract_x
  _atom_site_fract_y
  _atom_site_fract_z
  _atom_site_occupancy
  Li  Li1       1.0  0.8126956990454346  0.6461747284047306  0.7925310637219809  1.0000
  Li  Li2       1.0  0.8210696739843115  0.6930498656438431  0.5637257792150194  1.0000
  Li  Li3       1.0  0.2734474866883829  0.3104327651672065  0.6606175241759047  1.0000
  Li  Li4       1.0  0.9699268925469369  0.16928835882572457  0.13083517298218794  1.0000
  H   H1        1.0  0.19268256309442222  0.92465981899295  0.10811514675151557  1.0000
  H   H2        1.0  0.8398811687948182  0.5882171271368861  0.32789182662963867  1.0000
  H   H3        1.0  0.4237868768395856  0.07038289960473776  0.36327532958239317  1.0000
  H   H4        1.0  0.8141006787773222  0.4003252889961004  0.7066090556327254  1.0000
  S   S1        1.0  0.11447551939636469  0.5434962044819258  0.4896122209029272  1.0000
  S   S2        1.0  0.8856449994491413  0.7703976503689773  0.6608038407284766  1.0000
  O   O1        1.0  0.09347743698162958  0.9188604934606701  0.13751123862311943  1.0000
  O   O2        1.0  0.22746222675777972  0.7429882639553398  0.17421362694585696  1.0000
  O   O3        1.0  0.406111829506699  0.40265768207609653  0.8375921596889384  1.0000
  O   O4        1.0  0.19087530803517438  0.2284103200363461  0.3036523009650409  1.0000
  O   O5        1.0  0.1653229299990926  0.6694072746904567  0.1487828936369624  1.0000
  O   O6        1.0  0.7615159929264337  0.8123100973898545  0.914737312705256  1.0000
  O   O7        1.0  0.5706215873360634  0.342935820663115  0.5600791535107419  1.0000
  O   O8        1.0  0.6534516376850661  0.1893202707869932  0.6253254899056628  1.0000
  O   O9        1.0  0.4854448675760068  0.5451976524782367  0.5158141008578241  1.0000
  O   O10       1.0  0.9055834918108303  0.8449695606250316  0.6284394030517433  1.0000
data_image28
_chemical_formula_structural       Li4H4S2O10
_chemical_formula_sum              "Li4 H4 S2 O10"
_cell_length_a       4.90399
_cell_length_b       5.555894000000001
_cell_length_c       8.269645510084757
_cell_angle_alpha    72.8917451750904
_cell_angle_beta     90.0
_cell_angle_gamma    90.0

_space_group_name_H-M_alt    "P 1"
_space_group_IT_number       1

loop_
  _space_group_symop_operation_xyz
  'x, y, z'

loop_
  _atom_site_type_symbol
  _atom_site_label
  _atom_site_symmetry_multiplicity
  _atom_site_fract_x
  _atom_site_fract_y
  _atom_site_fract_z
  _atom_site_occupancy
  Li  Li1       1.0  0.17966586956754327  0.7448564617661759  0.5683063978212886  1.0000
  Li  Li2       1.0  0.9251297495575272  0.8814704062388046  0.367213376397558  1.0000
  Li  Li3       1.0  0.6464163560885936  0.8561580758541822  0.2818871767958626  1.0000
  Li  Li4       1.0  0.6191268076654524  0.39076047419803217  0.6181866097613238  1.0000
  H   H1        1.0  0.7070513777434826  0.09440452826675028  0.029607620323076844  1.0000
  H   H2        1.0  0.32960239984095097  0.6795820202678442  0.219928182894364  1.0000
  H   H3        1.0  0.0031262983102351427  0.7915358813479543  0.3110807181801647  1.0000
  H   H4        1.0  0.11874288262333721  0.7946022630203515  0.3952756756916642  1.0000
  S   S1        1.0  0.9707004987576511  0.7425976982922293  0.05266730845323764  1.0000
  S   S2        1.0  0.02111620135838166  0.4398803416406736  0.09284727892372757  1.0000
  O   O1        1.0  0.11140715662622824  0.5320357864256948  0.4697657732758671  1.0000
  O   O2        1.0  0.9904870160389692  0.4013244121451862  0.22896134480834007  1.0000
  O   O3        1.0  0.0009601533529348671  0.14513775485102087  0.5428052442439366  1.0000
  O   O4        1.0  0.5666245180327678  0.406060685578268  0.8955426259199157  1.0000
  O   O5        1.0  0.6637456469470635  0.5032161217823159  0.8946324753451336  1.0000
  O   O6        1.0  0.8900769926840439  0.2782640178920701  0.7948425710201263  1.0000
  O   O7        1.0  0.7110092288348824  0.7125090272456873  0.9717186318594031  1.0000
  O   O8        1.0  0.8167040579137392  0.6634833544958383  0.5304885641671717  1.0000
  O   O9        1.0  0.09594182425644249  0.5498196042426571  0.3798960740095936  1.0000
  O   O10       1.0  0.8319833424757235  0.3175839764298871  0.8526620472839568  1.0000
data_image29
_chemical_formula_structural       Li4H4S2O10
_chemical_formula_sum              "Li4 H4 S2 O10"
_cell_length_a       4.90399
_cell_length_b       5.555894000000001
_cell_length_c       8.269645510084757
_cell_angle_alpha    72.8917451750904
_cell_angle_beta     90.0
_cell_angle_gamma    90.0

_space_group_name_H-M_alt    "P 1"
_space_group_IT_number       1

loop_
  _space_group_symop_operation_xyz
  'x, y, z'

loop_
  _atom_site_type_symbol
  _atom_site_label
  _atom_site_symmetry_multiplicity
  _atom_site_fract_x
  _atom_site_fract_y
  _atom_site_fract_z
  _atom_site_occupancy
  Li  Li1       1.0  0.48356537776999176  0.9112031045369804  0.0724650084739551  1.0000
  Li  Li2       1.0  0.05505912059743423  0.544895870887558  0.7037412110221339  1.0000
  Li  Li3       1.0  0.8611200860177632  0.41329697344855276  0.8883509529405273  1.0000
  Li  Li4       1.0  0.8768494767136872  0.8137566219666041  0.3170626212377101  1.0000
  H   H1        1.0  0.09014845849014819  0.027866586460731924  0.14660052687395364  1.0000
  H   H2        1.0  0.3568115225061774  0.7181112971156836  0.6444340072339401  1.0000
  H   H3        1.0  0.7382571327034384  0.7079976438544691  0.7816040592733771  1.0000
  H   H4        1.0  0.31481731007806957  0.08978062006644905  0.9445883189328015  1.0000
  S   S1        1.0  0.792465977881875  0.5122560855816118  0.7965526458397107  1.0000
  S   S2        1.0  0.769236293330323  0.8386628661537543  0.8526457020780072  1.0000
  O   O1        1.0  0.5795569118345156  0.47160244989208877  0.11393656113432371  1.0000
  O   O2        1.0  0.536657078191638  0.8678660094446968  0.9681095510313753  1.0000
  O   O3        1.0  0.5368626732379198  0.016454885248094797  0.6179869642946869  1.0000
  O   O4        1.0  0.6109190393181052  0.07510073826415464  0.9125125666614622  1.0000
  O   O5        1.0  0.7928957663534675  0.35068500028864946  0.1793652374458361  1.0000
  O   O6        1.0  0.7166651883162558  0.06016031897161156  0.47131155198439956  1.0000
  O   O7        1.0  0.6722264491254464  0.8013039880024735  0.09373268170747906  1.0000
  O   O8        1.0  0.21748679401935078  0.35526313178706914  0.8862717469455674  1.0000
  O   O9        1.0  0.1605105580529198  0.793116753011418  0.6571424150606617  1.0000
  O   O10       1.0  0.44195634456991684  0.31943439942551777  0.3754778325819643  1.0000
data_image30
_chemical_formula_structural       Li4H4S2O10
_chemical_formula_sum              "Li4 H4 S2 O10"
_cell_length_a       4.90399
_cell_length_b       5.555894000000001
_cell_length_c       8.269645510084757
_cell_angle_alpha    72.8917451750904
_cell_angle_beta     90.0
_cell_angle_gamma    90.0

_space_group_name_H-M_alt    "P 1"
_space_group_IT_number       1

loop_
  _space_group_symop_operation_xyz
  'x, y, z'

loop_
  _atom_site_type_symbol
  _atom_site_label
  _atom_site_symmetry_multiplicity
  _atom_site_fract_x
  _atom_site_fract_y
  _atom_site_fract_z
  _atom_site_occupancy
  Li  Li1       1.0  0.5308595835231245  0.140915158088319  0.8902647921349853  1.0000
  Li  Li2       1.0  0.8643688471929636  0.9665872350096834  0.39890920522157103  1.0000
  Li  Li3       1.0  0.10528559802332893  0.1762846575875301  0.07224017259432003  1.0000
  Li  Li4       1.0  0.055230992147699  0.6069118061859626  0.16000991806504317  1.0000
  H   H1        1.0  0.1558829576242715  0.43321168911643326  0.8894174515735358  1.0000
  H   H2        1.0  0.7528995426255278  0.7421006830409169  0.09419348661322147  1.0000
  H   H3        1.0  0.2793724471703172  0.548217092640698  0.6278410029481165  1.0000
  H   H4        1.0  0.2499484569998458  0.14974761940538883  0.985264720628038  1.0000
  S   S1        1.0  0.1256392701070581  0.26379310485208407  0.8624217935139313  1.0000
  S   S2        1.0  0.1480212912429124  0.3249138246756047  0.5113508451031521  1.0000
  O   O1        1.0  0.25108308024937287  0.3007657090201974  0.16445912726658207  1.0000
  O   O2        1.0  0.31618734693620354  0.3615687939163763  0.10842644982039928  1.0000
  O   O3        1.0  0.6566861505270936  0.5713102921145037  0.9095918345847167  1.0000
  O   O4        1.0  0.2937842479732353  0.9242100021801889  0.9891781967016868  1.0000
  O   O5        1.0  0.3280826205154881  0.5892619874939555  0.41566189128207043  1.0000
  O   O6        1.0  0.962385687045753  0.7166847955668345  0.7381021343171597  1.0000
  O   O7        1.0  0.5448799541918561  0.16863068274687976  0.63113214133773  1.0000
  O   O8        1.0  0.36051266931463033  0.7914587139966898  0.44052259100135416  1.0000
  O   O9        1.0  0.6324720881530084  0.5957307315838989  0.7677709257986862  1.0000
  O   O10       1.0  0.21912016584246885  0.6143640810623765  0.4064637211849913  1.0000
data_image31
_chemical_formula_structural       Li4H4S2O10
_chemical_formula_sum              "Li4 H4 S2 O10"
_cell_length_a       4.90399
_cell_length_b       5.555894000000001
_cell_length_c       8.269645510084757
_cell_angle_alpha    72.8917451750904
_cell_angle_beta     90.0
_cell_angle_gamma    90.0

_space_group_name_H-M_alt    "P 1"
_space_group_IT_number       1

loop_
  _space_group_symop_operation_xyz
  'x, y, z'

loop_
  _atom_site_type_symbol
  _atom_site_label
  _atom_site_symmetry_multiplicity
  _atom_site_fract_x
  _atom_site_fract_y
  _atom_site_fract_z
  _atom_site_occupancy
  Li  Li1       1.0  0.39935877942480147  0.09635605220682919  0.15525184257421643  1.0000
  Li  Li2       1.0  0.3290727428975515  0.8419938389561139  0.11598570863134228  1.0000
  Li  Li3       1.0  0.9953214428969659  0.3704778862884268  0.17226737400051206  1.0000
  Li  Li4       1.0  0.6185288089327514  0.5235853757112636  0.7653424064919818  1.0000
  H   H1        1.0  0.10605012555606663  0.15041101130191237  0.4058610796928406  1.0000
  H   H2        1.0  0.8964940614750958  0.4956773901358247  0.1704229936003685  1.0000
  H   H3        1.0  0.40447010775096714  0.8958593187853694  0.8222689278190956  1.0000
  H   H4        1.0  0.5536057036370039  0.35514032328501344  0.2860722728073597  1.0000
  S   S1        1.0  0.42372136405901983  0.7910500051511917  0.032246282818960026  1.0000
  S   S2        1.0  0.5616110666887835  0.7630929037695751  0.673999153834302  1.0000
  O   O1        1.0  0.08072158248978667  0.5671877267304808  0.6026672333857732  1.0000
  O   O2        1.0  0.49545416014734656  0.24144125028396957  0.11581774443038739  1.0000
  O   O3        1.0  0.2092163771740161  0.22559493716107681  0.20668930673855357  1.0000
  O   O4        1.0  0.948497309233062  0.3549966206192039  0.009486548835411668  1.0000
  O   O5        1.0  0.1338152534881374  0.8332359431224177  0.47935462262921646  1.0000
  O   O6        1.0  0.32728867908008397  0.422012216062285  0.9516679933294654  1.0000
  O   O7        1.0  0.33146456466056406  0.9566391443659086  0.4040337529149838  1.0000
  O   O8        1.0  0.3013308205117937  0.07918274361873046  0.04108421900309622  1.0000
  O   O9        1.0  0.9965835271286778  0.068309280606627  0.9494464526360389  1.0000
  O   O10       1.0  0.3564695240347646  0.6494088097824715  0.5368772391084349  1.0000
data_image32
_chemical_formula_structural       Li4H4S2O10
_chemical_formula_sum              "Li4 H4 S2 O10"
_cell_length_a       4.90399
_cell_length_b       5.555894000000001
_cell_length_c       8.269645510084757
_cell_angle_alpha    72.8917451750904
_cell_angle_beta     90.0
_cell_angle_gamma    90.0

_space_group_name_H-M_alt    "P 1"
_space_group_IT_number       1

loop_
  _space_group_symop_operation_xyz
  'x, y, z'

loop_
  _atom_site_type_symbol
  _atom_site_label
  _atom_site_symmetry_multiplicity
  _atom_site_fract_x
  _atom_site_fract_y
  _atom_site_fract_z
  _atom_site_occupancy
  Li  Li1       1.0  0.9194988086819649  0.2992023603292182  0.11350007756846026  1.0000
  Li  Li2       1.0  0.5490564937354065  0.2127403305057669  0.44728506566025317  1.0000
  Li  Li3       1.0  0.8428822168207262  0.5103178062709048  0.5681487891124561  1.0000
  Li  Li4       1.0  0.3118160131853074  0.5738129345700145  0.9221639812603826  1.0000
  H   H1        1.0  0.7439300070982426  0.9601559019647539  0.028943684534169734  1.0000
  H   H2        1.0  0.75079751611338  0.7053791303187609  0.14085189870093018  1.0000
  H   H3        1.0  0.7059905002824962  0.5717815295793116  0.5669090986484662  1.0000
  H   H4        1.0  0.3522831710288301  0.8097672970034182  0.9932367643341422  1.0000
  S   S1        1.0  0.9549827556475066  0.8084202125901356  0.6545405036595184  1.0000
  S   S2        1.0  0.8065249180654064  0.07251817162614316  0.6112844100571238  1.0000
  O   O1        1.0  0.7510557027708273  0.5864908564835787  0.7732224259517579  1.0000
  O   O2        1.0  0.6539382701739669  0.7896825223579071  0.3003652855695691  1.0000
  O   O3        1.0  0.9321249051718041  0.31500322348438203  0.22674171879771166  1.0000
  O   O4        1.0  0.40499020414426923  0.13739224907476455  0.12404807686107233  1.0000
  O   O5        1.0  0.6835148420359474  0.4068196112202713  0.4269688271360792  1.0000
  O   O6        1.0  0.6131228737067431  0.9746269294992089  0.42634404718410224  1.0000
  O   O7        1.0  0.01547692489111796  0.5458428802085109  0.8558876517345197  1.0000
  O   O8        1.0  0.5494503608206287  0.2018383982940577  0.45352646929677576  1.0000
  O   O9        1.0  0.14909800264285877  0.2738375807311968  0.5679448723094538  1.0000
  O   O10       1.0  0.11918845592299476  0.17368989117676392  0.19641220128687564  1.0000
data_image33
_chemical_formula_structural       Li4H4S2O10
_chemical_formula_sum              "Li4 H4 S2 O10"
_cell_length_a       4.90399
_cell_length_b       5.555894000000001
_cell_length_c       8.269645510084757
_cell_angle_alpha    72.8917451750904
_cell_angle_beta     90.0
_cell_angle_gamma    90.0

_space_group_name_H-M_alt    "P 1"
_space_group_IT_number       1

loop_
  _space_group_symop_operation_xyz
  'x, y, z'

loop_
  _atom_site_type_symbol
  _atom_site_label
  _atom_site_symmetry_multiplicity
  _atom_site_fract_x
  _atom_site_fract_y
  _atom_site_fract_z
  _atom_site_occupancy
  Li  Li1       1.0  0.2502321586944163  0.6028257479192689  0.39858361301594414  1.0000
  Li  Li2       1.0  0.7803088414366357  0.760480744560482  0.6282586717279628  1.0000
  Li  Li3       1.0  0.7062394540917012  0.07790989300701767  0.8077068636193871  1.0000
  Li  Li4       1.0  0.6586598325520754  0.38376982673071325  0.43038327095564455  1.0000
  H   H1        1.0  0.679446395020932  0.5585710293380544  0.5006892158417031  1.0000
  H   H2        1.0  0.02117071222164668  0.18606380186975002  0.21851060772314668  1.0000
  H   H3        1.0  0.46095240861177444  0.16174734756350517  0.32349243230419233  1.0000
  H   H4        1.0  0.6209031114121899  0.3759879309218377  0.23984615574590862  1.0000
  S   S1        1.0  0.45690421844483353  0.46187487296992913  0.22321605891920626  1.0000
  S   S2        1.0  0.5892677862429991  0.7984032792737707  0.46736477356171235  1.0000
  O   O1        1.0  0.5717040387098677  0.999608879443258  0.3529412388397759  1.0000
  O   O2        1.0  0.022955717518925667  0.35728849755832925  0.4690475950483233  1.0000
  O   O3        1.0  0.051456089480780065  0.601138299331069  0.05489284035866149  1.0000
  O   O4        1.0  0.7209619386121631  0.981593998381868  0.25678032264113426  1.0000
  O   O5        1.0  0.9423040740948636  0.7862731190398335  0.43038367962799384  1.0000
  O   O6        1.0  0.2591626918874681  0.34883035463280976  0.3137919367291033  1.0000
  O   O7        1.0  0.5727099133073352  0.30845952057279646  0.7470437668962404  1.0000
  O   O8        1.0  0.7439906699000858  0.14107001584488899  0.708931963192299  1.0000
  O   O9        1.0  0.6358566296985373  0.8443316240955028  0.02843478105205577  1.0000
  O   O10       1.0  0.2386939292482566  0.3989568995311856  0.3436695191630861  1.0000
data_image34
_chemical_formula_structural       Li4H4S2O10
_chemical_formula_sum              "Li4 H4 S2 O10"
_cell_length_a       4.90399
_cell_length_b       5.555894000000001
_cell_length_c       8.269645510084757
_cell_angle_alpha    72.8917451750904
_cell_angle_beta     90.0
_cell_angle_gamma    90.0

_space_group_name_H-M_alt    "P 1"
_space_group_IT_number       1

loop_
  _space_group_symop_operation_xyz
  'x, y, z'

loop_
  _atom_site_type_symbol
  _atom_site_label
  _atom_site_symmetry_multiplicity
  _atom_site_fract_x
  _atom_site_fract_y
  _atom_site_fract_z
  _atom_site_occupancy
  Li  Li1       1.0  0.4978163035120815  0.6237482071155682  0.751217639161041  1.0000
  Li  Li2       1.0  0.9483834512066096  0.24951799702830613  0.9006899439846165  1.0000
  Li  Li3       1.0  0.8734682485010126  0.8844612217508256  0.3788401975762099  1.0000
  Li  Li4       1.0  0.8581939286086708  0.5452154250524472  0.01650709638488479  1.0000
  H   H1        1.0  0.15651244157925248  0.7455076660262421  0.9284367425134405  1.0000
  H   H2        1.0  0.540779663118883  0.2406793273985386  0.0950952983694151  1.0000
  H   H3        1.0  0.18766647926531732  0.16890712268650532  0.9685381536255591  1.0000
  H   H4        1.0  0.8009401086019352  0.5407640375196934  0.7231953572481871  1.0000
  S   S1        1.0  0.8180930137168616  0.04494264232926071  0.9827426197589375  1.0000
  S   S2        1.0  0.9704443730879575  0.35694594809319824  0.961759720928967  1.0000
  O   O1        1.0  0.880360025446862  0.7217484514694661  0.24464072374576062  1.0000
  O   O2        1.0  0.20360779599286616  0.3146097407734487  0.6498341221595183  1.0000
  O   O3        1.0  0.10959769319742918  0.7293275929405354  0.8710864704335108  1.0000
  O   O4        1.0  0.36415050574578345  0.06377694272669032  0.0014011698076501489  1.0000
  O   O5        1.0  0.2884021171776112  0.41449098476732615  0.7727754789484607  1.0000
  O   O6        1.0  0.33756287349388003  0.25343393383082  0.8313605273142457  1.0000
  O   O7        1.0  0.9522791767958552  0.6219268108834513  0.03015093132853508  1.0000
  O   O8        1.0  0.09805327077629045  0.7075563303660601  0.4322678417665884  1.0000
  O   O9        1.0  0.2668856804375537  0.14705826898716623  0.21669854191713966  1.0000
  O   O10       1.0  0.4860490072169341  0.31070283468579873  0.12596478061459493  1.0000
data_image35
_chemical_formula_structural       Li4H4S2O10
_chemical_formula_sum              "Li4 H4 S2 O10"
_cell_length_a       4.90399
_cell_length_b       5.555894000000001
_cell_length_c       8.269645510084757
_cell_angle_alpha    72.8917451750904
_cell_angle_beta     90.0
_cell_angle_gamma    90.0

_space_group_name_H-M_alt    "P 1"
_space_group_IT_number       1

loop_
  _space_group_symop_operation_xyz
  'x, y, z'

loop_
  _atom_site_type_symbol
  _atom_site_label
  _atom_site_symmetry_multiplicity
  _atom_site_fract_x
  _atom_site_fract_y
  _atom_site_fract_z
  _atom_site_occupancy
  Li  Li1       1.0  0.7707861624658108  0.6710240460233763  0.42961726160137914  1.0000
  Li  Li2       1.0  0.8826337755308487  0.09026129072299227  0.9817097662889864  1.0000
  Li  Li3       1.0  0.5345574964303523  0.3556066157761961  0.6588129973970354  1.0000
  Li  Li4       1.0  0.11928201746195555  0.8375128025800223  0.9087193265440874  1.0000
  H   H1        1.0  0.3032968961633742  0.6233230596408248  0.3872787372674793  1.0000
  H   H2        1.0  0.9554117497318657  0.5645500528626144  0.8813481702236459  1.0000
  H   H3        1.0  0.09570545936003327  0.32149231573566794  0.5807544345734641  1.0000
  H   H4        1.0  0.6939034688984975  0.6899075843393803  0.07284675841219723  1.0000
  S   S1        1.0  0.4463892813073471  0.5850110138417222  0.07122098770923913  1.0000
  S   S2        1.0  0.1839338024146855  0.6129603808512911  0.7192740046884865  1.0000
  O   O1        1.0  0.715687752555823  0.4838667169678956  0.30471462987225095  1.0000
  O   O2        1.0  0.3614698984893039  0.6466990006447304  0.6103889374062419  1.0000
  O   O3        1.0  0.133980592363514  0.578334147518035  0.9132716404565144  1.0000
  O   O4        1.0  0.44916436925996095  0.42936285375617445  0.6015133028267883  1.0000
  O   O5        1.0  0.8859656894928776  0.42687101976480335  0.3983608440939861  1.0000
  O   O6        1.0  0.2719184432644397  0.1324409581720829  0.15068984020035714  1.0000
  O   O7        1.0  0.5252683070139028  0.3762286472483538  0.8543976525543258  1.0000
  O   O8        1.0  0.5645301176118664  0.4925026802229695  0.2777210184140131  1.0000
  O   O9        1.0  0.7310242687235586  0.8767367374821333  0.9609917911730008  1.0000
  O   O10       1.0  0.6416590285371058  0.4500318052014336  0.821716887599905  1.0000
data_image36
_chemical_formula_structural       Li4H4S2O10
_chemical_formula_sum              "Li4 H4 S2 O10"
_cell_length_a       4.90399
_cell_length_b       5.555894000000001
_cell_length_c       8.269645510084757
_cell_angle_alpha    72.8917451750904
_cell_angle_beta     90.0
_cell_angle_gamma    90.0

_space_group_name_H-M_alt    "P 1"
_space_group_IT_number       1

loop_
  _space_group_symop_operation_xyz
  'x, y, z'

loop_
  _atom_site_type_symbol
  _atom_site_label
  _atom_site_symmetry_multiplicity
  _atom_site_fract_x
  _atom_site_fract_y
  _atom_site_fract_z
  _atom_site_occupancy
  Li  Li1       1.0  0.10976257524453104  0.06872217601630837  0.5088531864166725  1.0000
  Li  Li2       1.0  0.371950417640619  0.5018494686519261  0.9918453443387989  1.0000
  Li  Li3       1.0  0.12297050136839971  0.9774615736678243  0.699426309671253  1.0000
  Li  Li4       1.0  0.24016166338697076  0.011291843344224617  0.3412028906168416  1.0000
  H   H1        1.0  0.9939646450802684  0.3600941232871264  0.6670391431543976  1.0000
  H   H2        1.0  0.3152096718404209  0.5763091263361275  0.4848687496269122  1.0000
  H   H3        1.0  0.7919438171666116  0.24093165108934045  0.3198280925862491  1.0000
  H   H4        1.0  0.8404092701384798  0.5903417577501386  0.4793306984938681  1.0000
  S   S1        1.0  0.7402628029813059  0.04198557120980695  0.36544406769098714  1.0000
  S   S2        1.0  0.8554914150154218  0.5026640869909897  0.060919040988665074  1.0000
  O   O1        1.0  0.418695758911781  0.3584717116318643  0.9753727309398528  1.0000
  O   O2        1.0  0.7495183426653966  0.3301272594544571  0.47043737961212173  1.0000
  O   O3        1.0  0.21644131280481815  0.5904014646657743  0.9573124049347825  1.0000
  O   O4        1.0  0.2824377730721608  0.7422679362352937  0.7844634251669049  1.0000
  O   O5        1.0  0.24608536474988796  0.23299412743654102  0.06775341435104565  1.0000
  O   O6        1.0  0.488536752294749  0.2848995727254078  0.062031583627685905  1.0000
  O   O7        1.0  0.6559032166260295  0.9671285296790302  0.9363687518634833  1.0000
  O   O8        1.0  0.8060202915803529  0.8301630480564199  0.9083818922517821  1.0000
  O   O9        1.0  0.33442121237749234  0.8495922955553397  0.7267589928233065  1.0000
  O   O10       1.0  0.16324375043041073  0.12265165848657489  0.41566119517665356  1.0000
data_image37
_chemical_formula_structural       Li4H4S2O10
_chemical_formula_sum              "Li4 H4 S2 O10"
_cell_length_a       4.90399
_cell_length_b       5.555894000000001
_cell_length_c       8.269645510084757
_cell_angle_alpha    72.8917451750904
_cell_angle_beta     90.0
_cell_angle_gamma    90.0

_space_group_name_H-M_alt    "P 1"
_space_group_IT_number       1

loop_
  _space_group_symop_operation_xyz
  'x, y, z'

loop_
  _atom_site_type_symbol
  _atom_site_label
  _atom_site_symmetry_multiplicity
  _atom_site_fract_x
  _atom_site_fract_y
  _atom_site_fract_z
  _atom_site_occupancy
  Li  Li1       1.0  0.4682634568307549  0.6503323665820062  0.5416932753578294  1.0000
  Li  Li2       1.0  0.8847846549469978  0.22615148310433142  0.1734791721100919  1.0000
  Li  Li3       1.0  0.030982145573943853  0.08679069601930678  0.48680931562557817  1.0000
  Li  Li4       1.0  0.8762739137746394  0.7991145992709789  0.4229576007637661  1.0000
  H   H1        1.0  0.7105539604090154  0.4710481023648754  0.5793567867949605  1.0000
  H   H2        1.0  0.7632962050847709  0.2042022575624287  0.041559548350051045  1.0000
  H   H3        1.0  0.6272164890542626  0.9670500559732318  0.3195475178072229  1.0000
  H   H4        1.0  0.9161482398631051  0.047676775604486465  0.4019076060503721  1.0000
  S   S1        1.0  0.3914274309645407  0.2505581214209087  0.7363249372574501  1.0000
  S   S2        1.0  0.69549733272288  0.015805729432031512  0.029115232988260686  1.0000
  O   O1        1.0  0.8439730838290416  0.7728879302740097  0.7244372854220273  1.0000
  O   O2        1.0  0.7128601152217016  0.5277285216725431  0.2469696182233747  1.0000
  O   O3        1.0  0.8825516246724874  0.77379559003748  0.0754247862205375  1.0000
  O   O4        1.0  0.43780612968839705  0.07865157618653029  0.8253172739641741  1.0000
  O   O5        1.0  0.44182109166285954  0.13337875116121722  0.6161761401995136  1.0000
  O   O6        1.0  0.3555852798745036  0.3443998037837446  0.20166102331131697  1.0000
  O   O7        1.0  0.13929175026714802  0.04046924103749916  0.8131009429343976  1.0000
  O   O8        1.0  0.6950581757118925  0.7211058486718684  0.2013795959064737  1.0000
  O   O9        1.0  0.7266124201705679  0.6319043591684022  0.14939069039246533  1.0000
  O   O10       1.0  0.1648769426101353  0.19629612419521436  0.23785627663892228  1.0000
data_image38
_chemical_formula_structural       Li4H4S2O10
_chemical_formula_sum              "Li4 H4 S2 O10"
_cell_length_a       4.90399
_cell_length_b       5.555894000000001
_cell_length_c       8.269645510084757
_cell_angle_alpha    72.8917451750904
_cell_angle_beta     90.0
_cell_angle_gamma    90.0

_space_group_name_H-M_alt    "P 1"
_space_group_IT_number       1

loop_
  _space_group_symop_operation_xyz
  'x, y, z'

loop_
  _atom_site_type_symbol
  _atom_site_label
  _atom_site_symmetry_multiplicity
  _atom_site_fract_x
  _atom_site_fract_y
  _atom_site_fract_z
  _atom_site_occupancy
  Li  Li1       1.0  0.17588551715016365  0.7085125028388575  0.10379127998021431  1.0000
  Li  Li2       1.0  0.12238878576317802  0.9670060152711812  0.7459577895060647  1.0000
  Li  Li3       1.0  0.46862972516100854  0.8424451760947704  0.5007117365021259  1.0000
  Li  Li4       1.0  0.5736289308406413  0.6297255712997867  0.49264040344860405  1.0000
  H   H1        1.0  0.074246262665838  0.19674087991006672  0.04141786589752883  1.0000
  H   H2        1.0  0.46136824367567897  0.6625465475954115  0.8963278690353036  1.0000
  H   H3        1.0  0.3748197325039655  0.29417648864910007  0.026565951586235315  1.0000
  H   H4        1.0  0.05793779401574284  0.8374353738036007  0.33958176523447037  1.0000
  S   S1        1.0  0.5525935831246898  0.6897288810578175  0.32946125377202407  1.0000
  S   S2        1.0  0.2688065116526559  0.06727747165132314  0.7784682358033024  1.0000
  O   O1        1.0  0.9166307699342724  0.053464161697775126  0.5148372008261504  1.0000
  O   O2        1.0  0.9619455609936267  0.5457926588132977  0.34125499514630064  1.0000
  O   O3        1.0  0.03546768892556429  0.774713949940633  0.9972616519662552  1.0000
  O   O4        1.0  0.1426772918784991  0.22275206830818206  0.06212504056748003  1.0000
  O   O5        1.0  0.9340656032145489  0.41837590315844864  0.37111840732313794  1.0000
  O   O6        1.0  0.7494743766728789  0.16531923250295222  0.4059910186333582  1.0000
  O   O7        1.0  0.6550730270100757  0.4857716233818792  0.08204072358785197  1.0000
  O   O8        1.0  0.7277722978033125  0.2514152900548652  0.9012123290449381  1.0000
  O   O9        1.0  0.7878290613880381  0.5605779650031764  0.6164655273605604  1.0000
  O   O10       1.0  0.4785276499169413  0.6440279573434964  0.4660166341200238  1.0000
data_image39
_chemical_formula_structural       Li4H4S2O10
_chemical_formula_sum              "Li4 H4 S2 O10"
_cell_length_a       4.90399
_cell_length_b       5.555894000000001
_cell_length_c       8.269645510084757
_cell_angle_alpha    72.8917451750904
_cell_angle_beta     90.0
_cell_angle_gamma    90.0

_space_group_name_H-M_alt    "P 1"
_space_group_IT_number       1

loop_
  _space_group_symop_operation_xyz
  'x, y, z'

loop_
  _atom_site_type_symbol
  _atom_site_label
  _atom_site_symmetry_multiplicity
  _atom_site_fract_x
  _atom_site_fract_y
  _atom_site_fract_z
  _atom_site_occupancy
  Li  Li1       1.0  0.6538589792326093  0.01518026099074632  0.20466224491246976  1.0000
  Li  Li2       1.0  0.9707512896275148  0.4969577679003123  0.8600618259224575  1.0000
  Li  Li3       1.0  0.3028610245382879  0.62834987801034  0.7979733478277922  1.0000
  Li  Li4       1.0  0.320668391417712  0.8291963406081777  0.3520407552132383  1.0000
  H   H1        1.0  0.45006672851741314  0.762869602185674  0.2962325863773003  1.0000
  H   H2        1.0  0.5257113738916814  0.40315040946006775  0.706072311848402  1.0000
  H   H3        1.0  0.05123244342394173  0.12445841496810317  0.07856106222607195  1.0000
  H   H4        1.0  0.7517773278523237  0.45884437509812415  0.7307258441578597  1.0000
  S   S1        1.0  0.6932871007593349  0.39079373952699825  0.3117886029649526  1.0000
  S   S2        1.0  0.6825301244971342  0.6950012089218944  0.7238369206897914  1.0000
  O   O1        1.0  0.2561876341860625  0.12905727000907063  0.6275015211140271  1.0000
  O   O2        1.0  0.7148730201879516  0.055208741658134386  0.09822800435358658  1.0000
  O   O3        1.0  0.6351816491223872  0.6768556771567091  0.5130971165490337  1.0000
  O   O4        1.0  0.20709569018799812  0.3012686506845057  0.2186511415638961  1.0000
  O   O5        1.0  0.7899190607131459  0.9823681246489286  0.9593377883975336  1.0000
  O   O6        1.0  0.034932963899336755  0.26105256495065987  0.8305492047220469  1.0000
  O   O7        1.0  0.5449270732933655  0.45313841704046354  0.7403904924867675  1.0000
  O   O8        1.0  0.3787466803332791  0.31513787497533485  0.9435566707979888  1.0000
  O   O9        1.0  0.13925180863589048  0.8801965492493764  0.24120860088441987  1.0000
  O   O10       1.0  0.2799263564811554  0.9272865309030749  0.13801074407820124  1.0000
data_image40
_chemical_formula_structural       Li4H4S2O10
_chemical_formula_sum              "Li4 H4 S2 O10"
_cell_length_a       4.90399
_cell_length_b       5.555894000000001
_cell_length_c       8.269645510084757
_cell_angle_alpha    72.8917451750904
_cell_angle_beta     90.0
_cell_angle_gamma    90.0

_space_group_name_H-M_alt    "P 1"
_space_group_IT_number       1

loop_
  _space_group_symop_operation_xyz
  'x, y, z'

loop_
  _atom_site_type_symbol
  _atom_site_label
  _atom_site_symmetry_multiplicity
  _atom_site_fract_x
  _atom_site_fract_y
  _atom_site_fract_z
  _atom_site_occupancy
  Li  Li1       1.0  0.2595111019909382  0.02232338418252766  0.7056310623011086  1.0000
  Li  Li2       1.0  0.2411700917291455  0.4652152027701959  0.4389780825586058  1.0000
  Li  Li3       1.0  0.9297934756450559  0.057843444868922234  0.5609922935254872  1.0000
  Li  Li4       1.0  0.735718076582998  0.313803673023358  0.8974447557993699  1.0000
  H   H1        1.0  0.560855271294713  0.16807106975466013  0.9304269733838737  1.0000
  H   H2        1.0  0.6504491670057178  0.5722622922621667  0.468866327079013  1.0000
  H   H3        1.0  0.8632714077830315  0.21330844750627875  0.10816222318680957  1.0000
  H   H4        1.0  0.7474110946059227  0.09707100479863584  0.9541892330162227  1.0000
  S   S1        1.0  0.45471947215264663  0.9964691285858862  0.45657505956478417  1.0000
  S   S2        1.0  0.5350324315368198  0.9033078648499213  0.3476552065112628  1.0000
  O   O1        1.0  0.09547474394366873  0.12671250058338046  0.712720490351785  1.0000
  O   O2        1.0  0.2664856364717707  0.7687374529195949  0.7925121589505579  1.0000
  O   O3        1.0  0.9916385788237676  0.3722238128539175  0.5051388065912761  1.0000
  O   O4        1.0  0.3166886990657076  0.03744227718561888  0.27046577422879636  1.0000
  O   O5        1.0  0.8163849613047205  0.6093414296701667  0.2511375454237168  1.0000
  O   O6        1.0  0.8223201540531591  0.6835091228131205  0.4819968086667359  1.0000
  O   O7        1.0  0.08492984296754003  0.2788809520425275  0.8778405298944563  1.0000
  O   O8        1.0  0.8573206944274716  0.6078845276497304  0.49598940659780055  1.0000
  O   O9        1.0  0.7862704989966005  0.7230117348772183  0.11929261083423626  1.0000
  O   O10       1.0  0.7586579627823085  0.6301505387527868  0.8740833681513323  1.0000
data_image41
_chemical_formula_structural       Li4H4S2O10
_chemical_formula_sum              "Li4 H4 S2 O10"
_cell_length_a       4.90399
_cell_length_b       5.555894000000001
_cell_length_c       8.269645510084757
_cell_angle_alpha    72.8917451750904
_cell_angle_beta     90.0
_cell_angle_gamma    90.0

_space_group_name_H-M_alt    "P 1"
_space_group_IT_number       1

loop_
  _space_group_symop_operation_xyz
  'x, y, z'

loop_
  _atom_site_type_symbol
  _atom_site_label
  _atom_site_symmetry_multiplicity
  _atom_site_fract_x
  _atom_site_fract_y
  _atom_site_fract_z
  _atom_site_occupancy
  Li  Li1       1.0  0.018205481581389904  0.2568421488394961  0.8351595902058762  1.0000
  Li  Li2       1.0  0.21135688270442188  0.7870666256640106  0.022854941111290827  1.0000
  Li  Li3       1.0  0.7263490459445165  0.6268780673854053  0.6610313658602536  1.0000
  Li  Li4       1.0  0.1793262306600809  0.0736565446422901  0.278396631591022  1.0000
  H   H1        1.0  0.1496836554724723  0.24766215810086578  0.23183929512742907  1.0000
  H   H2        1.0  0.13415067922323942  0.8034961062949151  0.5526700230548158  1.0000
  H   H3        1.0  0.8067364557646215  0.9937164527364075  0.4360612872405909  1.0000
  H   H4        1.0  0.5985087930457667  0.24486479093320668  0.6768614316824824  1.0000
  S   S1        1.0  0.37163158919429407  0.8639900217531249  0.8482732888078317  1.0000
  S   S2        1.0  0.7924542000400834  0.6073278698022477  0.9940477879717946  1.0000
  O   O1        1.0  0.00789346708188532  0.5840473119169474  0.697885136178229  1.0000
  O   O2        1.0  0.03852877765893936  0.5304217011725996  0.4058745465008542  1.0000
  O   O3        1.0  0.5842356944922358  0.3939314854796976  0.0465350199592649  1.0000
  O   O4        1.0  0.6210848044138402  0.537071134429425  0.24741367588285357  1.0000
  O   O5        1.0  0.7071040261071175  0.620950894219277  0.9167047168321005  1.0000
  O   O6        1.0  0.7321637576678768  0.9123408384621143  0.3915011426433921  1.0000
  O   O7        1.0  0.2863528506131843  0.029807899467414245  0.3098404529155232  1.0000
  O   O8        1.0  0.7850016959710047  0.5874795586423716  0.2676181417191401  1.0000
  O   O9        1.0  0.5243851905106567  0.12220947444984631  0.8149459632695653  1.0000
  O   O10       1.0  0.19397075183223933  0.16732576134381816  0.08931568515254185  1.0000
data_image42
_chemical_formula_structural       Li4H4S2O10
_chemical_formula_sum              "Li4 H4 S2 O10"
_cell_length_a       4.90399
_cell_length_b       5.555894000000001
_cell_length_c       8.269645510084757
_cell_angle_alpha    72.8917451750904
_cell_angle_beta     90.0
_cell_angle_gamma    90.0

_space_group_name_H-M_alt    "P 1"
_space_group_IT_number       1

loop_
  _space_group_symop_operation_xyz
  'x, y, z'

loop_
  _atom_site_type_symbol
  _atom_site_label
  _atom_site_symmetry_multiplicity
  _atom_site_fract_x
  _atom_site_fract_y
  _atom_site_fract_z
  _atom_site_occupancy
  Li  Li1       1.0  0.9489735376555473  0.9500416767550632  0.9861090342747048  1.0000
  Li  Li2       1.0  0.905012718285434  0.7862541935755871  0.33737646421650425  1.0000
  Li  Li3       1.0  0.5643519946352171  0.5105455623706803  0.32221695128828287  1.0000
  Li  Li4       1.0  0.15299252700060606  0.4022770701558329  0.5668369733029976  1.0000
  H   H1        1.0  0.7293262309394777  0.6373222095426172  0.5205560483736917  1.0000
  H   H2        1.0  0.00197769096121192  0.15221785986796021  0.9831637646857416  1.0000
  H   H3        1.0  0.6522590134991333  0.8655310422182083  0.20846438291482627  1.0000
  H   H4        1.0  0.3985178685397841  0.9028409769525751  0.3209817470051348  1.0000
  S   S1        1.0  0.19618585158605129  0.03392597200581804  0.8138596935314126  1.0000
  S   S2        1.0  0.21693129959749058  0.7198504207772203  0.02349328075069934  1.0000
  O   O1        1.0  0.3361202458218031  0.9859246578998864  0.9950293914298527  1.0000
  O   O2        1.0  0.1447590064490214  0.5047520463413093  0.023001175693934783  1.0000
  O   O3        1.0  0.29183230662602  0.19929314160253853  0.9080700595259259  1.0000
  O   O4        1.0  0.07285017753019929  0.20372074760962278  0.8243327219388448  1.0000
  O   O5        1.0  0.22524346646969207  0.45505115464766277  0.6336270037036229  1.0000
  O   O6        1.0  0.8573650624603033  0.12609195848926902  0.9084072632249445  1.0000
  O   O7        1.0  0.25748473597923294  0.12148301530396566  0.295387550315354  1.0000
  O   O8        1.0  0.14038986805826426  0.4822748103761114  0.9379612245829776  1.0000
  O   O9        1.0  0.387865224853158  0.14178436346787748  0.6839463123105816  1.0000
  O   O10       1.0  0.0977947591454722  0.23482970567420125  0.8301437881018501  1.0000
data_image43
_chemical_formula_structural       Li4H4S2O10
_chemical_formula_sum              "Li4 H4 S2 O10"
_cell_length_a       4.90399
_cell_length_b       5.555894000000001
_cell_length_c       8.269645510084757
_cell_angle_alpha    72.8917451750904
_cell_angle_beta     90.0
_cell_angle_gamma    90.0

_space_group_name_H-M_alt    "P 1"
_space_group_IT_number       1

loop_
  _space_group_symop_operation_xyz
  'x, y, z'

loop_
  _atom_site_type_symbol
  _atom_site_label
  _atom_site_symmetry_multiplicity
  _atom_site_fract_x
  _atom_site_fract_y
  _atom_site_fract_z
  _atom_site_occupancy
  Li  Li1       1.0  0.7800108469091356  0.881143526523374  0.2966587709961459  1.0000
  Li  Li2       1.0  0.9914045189507306  0.7547703884192742  0.6588388432282954  1.0000
  Li  Li3       1.0  0.20377336072124308  0.7068661593366414  0.9169910287018865  1.0000
  Li  Li4       1.0  0.619013745803386  0.8615555727301398  0.909712728462182  1.0000
  H   H1        1.0  0.5632340591400862  0.9386283429339528  0.7398524555610493  1.0000
  H   H2        1.0  0.5286401368211955  0.21941524045541883  0.023200674913823605  1.0000
  H   H3        1.0  0.48090297426097095  0.2081639221869409  0.9813512471155263  1.0000
  H   H4        1.0  0.7973742651374778  0.4641892393119633  0.728311010170728  1.0000
  S   S1        1.0  0.915537049411796  0.5498830015421845  0.9259540876955725  1.0000
  S   S2        1.0  0.9737100233323872  0.16917144658509642  0.5734116283711046  1.0000
  O   O1        1.0  0.41908021320341504  0.9135529464110732  0.0778476167761255  1.0000
  O   O2        1.0  0.49293097655754536  0.9440084677771665  0.03672672499669716  1.0000
  O   O3        1.0  0.1136817132064607  0.11638578353449702  0.39661099706427194  1.0000
  O   O4        1.0  0.33427007566206157  0.4150619972497225  0.976472042792011  1.0000
  O   O5        1.0  0.3591291210032068  0.19945459479640704  0.1723527811554959  1.0000
  O   O6        1.0  0.4029299832182005  0.9255800507962704  0.6038595205172896  1.0000
  O   O7        1.0  0.4580537146248389  0.6353026413416956  0.6029297802597284  1.0000
  O   O8        1.0  0.5755124441348016  0.9576554896775633  0.4635833149077371  1.0000
  O   O9        1.0  0.4656160484883003  0.08734741832950021  0.34996352440794  1.0000
  O   O10       1.0  0.6914643673226237  0.5163528159609996  0.25275180413154885  1.0000
data_image44
_chemical_formula_structural       Li4H4S2O10
_chemical_formula_sum              "Li4 H4 S2 O10"
_cell_length_a       4.90399
_cell_length_b       5.555894000000001
_cell_length_c       8.269645510084757
_cell_angle_alpha    72.8917451750904
_cell_angle_beta     90.0
_cell_angle_gamma    90.0

_space_group_name_H-M_alt    "P 1"
_space_group_IT_number       1

loop_
  _space_group_symop_operation_xyz
  'x, y, z'

loop_
  _atom_site_type_symbol
  _atom_site_label
  _atom_site_symmetry_multiplicity
  _atom_site_fract_x
  _atom_site_fract_y
  _atom_site_fract_z
  _atom_site_occupancy
  Li  Li1       1.0  0.7757007088512182  0.45280113792978227  0.5236103428760543  1.0000
  Li  Li2       1.0  0.16760213195811957  0.9509508325718343  0.112355217395816  1.0000
  Li  Li3       1.0  0.46637724297033856  0.34847918373998255  0.4573330886196345  1.0000
  Li  Li4       1.0  0.4923943360336125  0.31663059431593865  0.9411647160886787  1.0000
  H   H1        1.0  0.7632807227782905  0.2852368572494015  0.878306764177978  1.0000
  H   H2        1.0  0.9220441678771749  0.06941048661246896  0.2132175515871495  1.0000
  H   H3        1.0  0.37407054822688224  0.8198237449396402  0.7569811503053643  1.0000
  H   H4        1.0  0.3734897856338648  0.17323592002503574  0.49648404167965055  1.0000
  S   S1        1.0  0.09390093188267201  0.7560861675301567  0.5819323425530456  1.0000
  S   S2        1.0  0.846507201436907  0.04100382933393121  0.9995199025142938  1.0000
  O   O1        1.0  0.5573147268441971  0.36939058220013976  0.06425259240495507  1.0000
  O   O2        1.0  0.48636757011990994  0.5740268842782825  0.5359868212253787  1.0000
  O   O3        1.0  0.5426604855429105  0.38555045356042683  0.7920258595622727  1.0000
  O   O4        1.0  0.9651511193951592  0.7982488058041781  0.5642040564562194  1.0000
  O   O5        1.0  0.16713146839174442  0.7563927241135389  0.2551956555689685  1.0000
  O   O6        1.0  0.4238130645826459  0.3433443771209568  0.9207574841566384  1.0000
  O   O7        1.0  0.3876708446769044  0.17599417018936947  0.05767413123976439  1.0000
  O   O8        1.0  0.019934673560783267  0.9577643219381571  0.4941584159969352  1.0000
  O   O9        1.0  0.932336772850249  0.714378506756475  0.3785504667539499  1.0000
  O   O10       1.0  0.06067929739947431  0.8664681209484115  0.6714992618071847  1.0000
data_image45
_chemical_formula_structural       Li4H4S2O10
_chemical_formula_sum              "Li4 H4 S2 O10"
_cell_length_a       4.90399
_cell_length_b       5.555894000000001
_cell_length_c       8.269645510084757
_cell_angle_alpha    72.8917451750904
_cell_angle_beta     90.0
_cell_angle_gamma    90.0

_space_group_name_H-M_alt    "P 1"
_space_group_IT_number       1

loop_
  _space_group_symop_operation_xyz
  'x, y, z'

loop_
  _atom_site_type_symbol
  _atom_site_label
  _atom_site_symmetry_multiplicity
  _atom_site_fract_x
  _atom_site_fract_y
  _atom_site_fract_z
  _atom_site_occupancy
  Li  Li1       1.0  0.8856948507018387  0.7710892157629132  0.36795608315151185  1.0000
  Li  Li2       1.0  0.5612397332442924  0.24305392481619492  0.556104805553332  1.0000
  Li  Li3       1.0  0.7487261583919462  0.9828025952447206  0.8732877143193036  1.0000
  Li  Li4       1.0  0.9647849528118968  0.9926228077383712  0.22270247631240636  1.0000
  H   H1        1.0  0.5351850686129183  0.9321302416501567  0.6385083963396028  1.0000
  H   H2        1.0  0.41923924279399216  0.3787827221676707  0.047728838137118146  1.0000
  H   H3        1.0  0.9643004471436143  0.32663186569698155  0.06517947989050299  1.0000
  H   H4        1.0  0.74245777761098  0.5042258951580152  0.48624461726285517  1.0000
  S   S1        1.0  0.2201613001525402  0.6725122994976118  0.013716729532461613  1.0000
  S   S2        1.0  0.060223408858291805  0.8074227482429706  0.3687986040022224  1.0000
  O   O1        1.0  0.04803673361311667  0.21754292072728276  0.6432612957141828  1.0000
  O   O2        1.0  0.39152897289022803  0.2030067736050114  0.4408331287559122  1.0000
  O   O3        1.0  0.5031084194743016  0.8692340448033065  0.8916223209962482  1.0000
  O   O4        1.0  0.9123209196841344  0.4543341158423573  0.8225769129276159  1.0000
  O   O5        1.0  0.672501707864285  0.5520632481930079  0.5251660783833358  1.0000
  O   O6        1.0  0.6780707442667335  0.408336695516482  0.36453706701286137  1.0000
  O   O7        1.0  0.8851828774204478  0.9105883213196648  0.612659222795628  1.0000
  O   O8        1.0  0.3938735369592905  0.7755686661112122  0.09953085670713335  1.0000
  O   O9        1.0  0.5722811169689521  0.03766917670145631  0.2859912193380296  1.0000
  O   O10       1.0  0.17610076331766322  0.5393665528390557  0.9002337864076253  1.0000
data_image46
_chemical_formula_structural       Li4H4S2O10
_chemical_formula_sum              "Li4 H4 S2 O10"
_cell_length_a       4.90399
_cell_length_b       5.555894000000001
_cell_length_c       8.269645510084757
_cell_angle_alpha    72.8917451750904
_cell_angle_beta     90.0
_cell_angle_gamma    90.0

_space_group_name_H-M_alt    "P 1"
_space_group_IT_number       1

loop_
  _space_group_symop_operation_xyz
  'x, y, z'

loop_
  _atom_site_type_symbol
  _atom_site_label
  _atom_site_symmetry_multiplicity
  _atom_site_fract_x
  _atom_site_fract_y
  _atom_site_fract_z
  _atom_site_occupancy
  Li  Li1       1.0  0.445883653126657  0.6456668628379703  0.11932750535197556  1.0000
  Li  Li2       1.0  0.43210639141034335  0.722554462205153  0.5748092725407332  1.0000
  Li  Li3       1.0  0.4386315134433971  0.05213351745624095  0.3822210356593132  1.0000
  Li  Li4       1.0  0.3954394022002816  0.2928308534901589  0.6566189783625305  1.0000
  H   H1        1.0  0.3670917684212327  0.9158540206262842  0.4655212601646781  1.0000
  H   H2        1.0  0.9195709237828851  0.8149655810557306  0.6745751911657862  1.0000
  H   H3        1.0  0.9419130425085314  0.5329919343348593  0.0006973193376325071  1.0000
  H   H4        1.0  0.3869219955231529  0.4138989303028211  0.5381748913787305  1.0000
  S   S1        1.0  0.475122133968398  0.8651012126065325  0.6681082416325808  1.0000
  S   S2        1.0  0.7941413826774806  0.5925649862620048  0.3512550430605188  1.0000
  O   O1        1.0  0.2608929644920863  0.6940535369794816  0.64330030803103  1.0000
  O   O2        1.0  0.21806673426181078  0.7798015706066508  0.022913161403266713  1.0000
  O   O3        1.0  0.47884060143042007  0.9083172774408013  0.29681568727392005  1.0000
  O   O4        1.0  0.5773010222474113  0.6757938130758703  0.5777930280237342  1.0000
  O   O5        1.0  0.9352469565201318  0.8109343097312376  0.8371045431995299  1.0000
  O   O6        1.0  0.9200134039856493  0.5042937137186527  0.4711733709555119  1.0000
  O   O7        1.0  0.9461726154841017  0.720533106738003  0.979178715904709  1.0000
  O   O8        1.0  0.04001131816767156  0.9674698588787578  0.8269088508677669  1.0000
  O   O9        1.0  0.22093197103822604  0.5502052200608887  0.9357190244627418  1.0000
  O   O10       1.0  0.41567454717005603  0.6434941590414383  0.6258550803759135  1.0000
data_image47
_chemical_formula_structural       Li4H4S2O10
_chemical_formula_sum              "Li4 H4 S2 O10"
_cell_length_a       4.90399
_cell_length_b       5.555894000000001
_cell_length_c       8.269645510084757
_cell_angle_alpha    72.8917451750904
_cell_angle_beta     90.0
_cell_angle_gamma    90.0

_space_group_name_H-M_alt    "P 1"
_space_group_IT_number       1

loop_
  _space_group_symop_operation_xyz
  'x, y, z'

loop_
  _atom_site_type_symbol
  _atom_site_label
  _atom_site_symmetry_multiplicity
  _atom_site_fract_x
  _atom_site_fract_y
  _atom_site_fract_z
  _atom_site_occupancy
  Li  Li1       1.0  0.24453927529975772  0.3787219029618427  0.3083558911457658  1.0000
  Li  Li2       1.0  0.4048624220304191  0.31376995687605813  0.7615921219985466  1.0000
  Li  Li3       1.0  0.3921024845512875  0.08105898147914559  0.351771492511034  1.0000
  Li  Li4       1.0  0.8639774657785892  0.6355085178511217  0.6072956667630933  1.0000
  H   H1        1.0  0.6100188689306378  0.9065279037458822  0.961648469325155  1.0000
  H   H2        1.0  0.8442539945244789  0.21405630186200142  0.9008046380477026  1.0000
  H   H3        1.0  0.9939941116608679  0.6956967466976494  0.8439387895632535  1.0000
  H   H4        1.0  0.9312709320220165  0.6051787426695228  0.854423392796889  1.0000
  S   S1        1.0  0.044444846687838435  0.37969348204205744  0.6196285480400547  1.0000
  S   S2        1.0  0.5980504461331293  0.4311184884281829  0.04829938232433051  1.0000
  O   O1        1.0  0.1213094312697649  0.5565669564530253  0.5900349633884616  1.0000
  O   O2        1.0  0.6579481898806989  0.4093846708419733  0.25001546772546135  1.0000
  O   O3        1.0  0.7622092366218567  0.9733814223436639  0.4335351577028632  1.0000
  O   O4        1.0  0.8783894537482411  0.15661753562744707  0.02477582667779643  1.0000
  O   O5        1.0  0.07472077069542138  0.9138257433223771  0.07914599540526979  1.0000
  O   O6        1.0  0.08741784538142383  0.3702810548711568  0.3465108962263912  1.0000
  O   O7        1.0  0.7884618804964703  0.8234897541551618  0.18145114823710173  1.0000
  O   O8        1.0  0.44778391532599926  0.8384516813675873  0.5340125042130239  1.0000
  O   O9        1.0  0.49929267168045044  0.23703136258700397  0.9726841713054455  1.0000
  O   O10       1.0  0.22126547282095999  0.7578874996397644  0.1488703649956733  1.0000
data_image48
_chemical_formula_structural       Li4H4S2O10
_chemical_formula_sum              "Li4 H4 S2 O10"
_cell_length_a       4.90399
_cell_length_b       5.555894000000001
_cell_length_c       8.269645510084757
_cell_angle_alpha    72.8917451750904
_cell_angle_beta     90.0
_cell_angle_gamma    90.0

_space_group_name_H-M_alt    "P 1"
_space_group_IT_number       1

loop_
  _space_group_symop_operation_xyz
  'x, y, z'

loop_
  _atom_site_type_symbol
  _atom_site_label
  _atom_site_symmetry_multiplicity
  _atom_site_fract_x
  _atom_site_fract_y
  _atom_site_fract_z
  _atom_site_occupancy
  Li  Li1       1.0  0.5460789557546377  0.4706146684475243  0.19748355192132294  1.0000
  Li  Li2       1.0  0.022820249781943858  0.37745640764478594  0.4363133534207009  1.0000
  Li  Li3       1.0  0.015650955647288356  0.44228043186012655  0.1366290485020727  1.0000
  Li  Li4       1.0  0.7705928990617394  0.4211579794064164  0.28887262544594705  1.0000
  H   H1        1.0  0.9268490278627723  0.6794452271424234  0.5485109558794647  1.0000
  H   H2        1.0  0.6531994552351534  0.0761000788770616  0.7697041248902678  1.0000
  H   H3        1.0  0.5219754737336189  0.22906128875911236  0.8762716457713395  1.0000
  H   H4        1.0  0.1313610127544962  0.9344442533329129  0.6627086824737489  1.0000
  S   S1        1.0  0.6697510867379606  0.4123416661750525  0.3036859988933429  1.0000
  S   S2        1.0  0.8741846268530935  0.5274323969497345  0.826255802763626  1.0000
  O   O1        1.0  0.8614520921255462  0.3654846849385649  0.018632527207955718  1.0000
  O   O2        1.0  0.29196620325092226  0.13778761314461008  0.8766838629089762  1.0000
  O   O3        1.0  0.30331150675192475  0.9450209036731394  0.9717231830582023  1.0000
  O   O4        1.0  0.6547388564795256  0.7558124894276261  0.08659991979948245  1.0000
  O   O5        1.0  0.651034331691335  0.341644553525839  0.9090174181765178  1.0000
  O   O6        1.0  0.021171408472582698  0.02420070907101035  0.9261011718772352  1.0000
  O   O7        1.0  0.014656752318842337  0.7348850834969198  0.9836973417550325  1.0000
  O   O8        1.0  0.9993742986116558  0.8519688009400852  0.4318634130177088  1.0000
  O   O9        1.0  0.5771132675581612  0.48805066423665266  0.9809032660632511  1.0000
  O   O10       1.0  0.971451815450564  0.5621108771301806  0.6828004406415857  1.0000
data_image49
_chemical_formula_structural       Li4H4S2O10
_chemical_formula_sum              "Li4 H4 S2 O10"
_cell_length_a       4.90399
_cell_length_b       5.555894000000001
_cell_length_c       8.269645510084757
_cell_angle_alpha    72.8917451750904
_cell_angle_beta     90.0
_cell_angle_gamma    90.0

_space_group_name_H-M_alt    "P 1"
_space_group_IT_number       1

loop_
  _space_group_symop_operation_xyz
  'x, y, z'

loop_
  _atom_site_type_symbol
  _atom_site_label
  _atom_site_symmetry_multiplicity
  _atom_site_fract_x
  _atom_site_fract_y
  _atom_site_fract_z
  _atom_site_occupancy
  Li  Li1       1.0  0.9374608504585922  0.8671008690726012  0.44533051108010113  1.0000
  Li  Li2       1.0  0.400646336376667  0.5044104935368523  0.7302810049732216  1.0000
  Li  Li3       1.0  0.2313221238036931  0.83959592692554  0.365866010542959  1.0000
  Li  Li4       1.0  0.2448207908309996  0.25982772826682776  0.696546341991052  1.0000
  H   H1        1.0  0.7232905621640384  0.5762750593712553  0.1667899815365672  1.0000
  H   H2        1.0  0.8610697067342699  0.011099449824541807  0.6285719603765756  1.0000
  H   H3        1.0  0.8050480072852224  0.045089052990078926  0.2270418675034307  1.0000
  H   H4        1.0  0.6947223000461236  0.6722832582890987  0.7642551065655425  1.0000
  S   S1        1.0  0.11024477519094944  0.8969667055644095  0.7004718360258266  1.0000
  S   S2        1.0  0.15651051851455122  0.2899840274476446  0.581150691723451  1.0000
  O   O1        1.0  0.5039547857595608  0.34668164048343897  0.9721421335707419  1.0000
  O   O2        1.0  0.8157550373580307  0.451014528342057  0.40233096457086504  1.0000
  O   O3        1.0  0.33844211837276816  0.6400583200156689  0.7680203092750162  1.0000
  O   O4        1.0  0.02887191576883197  0.1304387131240219  0.12053510460827965  1.0000
  O   O5        1.0  0.503509765585477  0.9981200421025278  0.882880872421083  1.0000
  O   O6        1.0  0.15286592906340957  0.26394753251224756  0.37589038955047727  1.0000
  O   O7        1.0  0.18725429888581857  0.918277947945171  0.36576635984238237  1.0000
  O   O8        1.0  0.5531484445091337  0.9758856277330779  0.7183695452404208  1.0000
  O   O9        1.0  0.9074328486458398  0.613307953812182  0.2536254146871215  1.0000
  O   O10       1.0  0.882175006205216  0.3769579887157306  0.0786166837788187  1.0000
data_image50
_chemical_formula_structural       Li4H4S2O10
_chemical_formula_sum              "Li4 H4 S2 O10"
_cell_length_a       4.90399
_cell_length_b       5.555894000000001
_cell_length_c       8.269645510084757
_cell_angle_alpha    72.8917451750904
_cell_angle_beta     90.0
_cell_angle_gamma    90.0

_space_group_name_H-M_alt    "P 1"
_space_group_IT_number       1

loop_
  _space_group_symop_operation_xyz
  'x, y, z'

loop_
  _atom_site_type_symbol
  _atom_site_label
  _atom_site_symmetry_multiplicity
  _atom_site_fract_x
  _atom_site_fract_y
  _atom_site_fract_z
  _atom_site_occupancy
  Li  Li1       1.0  0.2892974060960114  0.3951491473708302  0.5756358675425872  1.0000
  Li  Li2       1.0  0.9936255782376975  0.7386574051342905  0.7155905407562386  1.0000
  Li  Li3       1.0  0.29856528147138306  0.08236119011417031  0.045981462113559246  1.0000
  Li  Li4       1.0  0.07365121459588408  0.21885445609223098  0.6200609147781506  1.0000
  H   H1        1.0  0.9992841936182231  0.9292829704936594  0.03978157031815499  1.0000
  H   H2        1.0  0.5209427992813289  0.4798342068679631  0.26427051570499316  1.0000
  H   H3        1.0  0.8570469787809998  0.30740864062681794  0.6673546531237662  1.0000
  H   H4        1.0  0.9570527283358388  0.3695901040919125  0.6612933459691703  1.0000
  S   S1        1.0  0.12959049269557  0.44875214248895645  0.01318499748595059  1.0000
  S   S2        1.0  0.00810895743779838  0.08735359011916444  0.20334474579431117  1.0000
  O   O1        1.0  0.5561001938767731  0.9899265465792269  0.07107106916373596  1.0000
  O   O2        1.0  0.6787689082557335  0.12807963910745457  0.8417664400767535  1.0000
  O   O3        1.0  0.19540824880823493  0.34503522867453285  0.21784508740529418  1.0000
  O   O4        1.0  0.672750121448189  0.49471000768244267  0.2894324471562868  1.0000
  O   O5        1.0  0.18245684973953757  0.10752244527975563  0.8374946641270071  1.0000
  O   O6        1.0  0.39557768241502345  0.8281038021668792  0.13412728998810053  1.0000
  O   O7        1.0  0.9399407302262262  0.5276245510322042  0.833479862078093  1.0000
  O   O8        1.0  0.6236656934488565  0.24859782488783821  0.12624174513621256  1.0000
  O   O9        1.0  0.55588755721692  0.06893645522359293  0.35353640663743136  1.0000
  O   O10       1.0  0.9371084705926478  0.6512235089903697  0.9742227180977352  1.0000
data_image51
_chemical_formula_structural       Li4H4S2O10
_chemical_formula_sum              "Li4 H4 S2 O10"
_cell_length_a       4.90399
_cell_length_b       5.555894000000001
_cell_length_c       8.269645510084757
_cell_angle_alpha    72.8917451750904
_cell_angle_beta     90.0
_cell_angle_gamma    90.0

_space_group_name_H-M_alt    "P 1"
_space_group_IT_number       1

loop_
  _space_group_symop_operation_xyz
  'x, y, z'

loop_
  _atom_site_type_symbol
  _atom_site_label
  _atom_site_symmetry_multiplicity
  _atom_site_fract_x
  _atom_site_fract_y
  _atom_site_fract_z
  _atom_site_occupancy
  Li  Li1       1.0  0.45411563152447343  0.8353997480589896  0.7500722664408386  1.0000
  Li  Li2       1.0  0.9407328405650333  0.1578248628647998  0.5923055933963042  1.0000
  Li  Li3       1.0  0.20526949899431202  0.11979898973368108  0.5958710964769125  1.0000
  Li  Li4       1.0  0.4326110268011689  0.03968988498672843  0.2982874496374279  1.0000
  H   H1        1.0  0.6626196822617203  0.24674389394931495  0.9716400955803692  1.0000
  H   H2        1.0  0.6737552941776812  0.5382861900143325  0.24523736868286505  1.0000
  H   H3        1.0  0.1886048767482862  0.6903373498935252  0.44356811116449535  1.0000
  H   H4        1.0  0.23831253708340228  0.4625120668206364  0.4569339028093964  1.0000
  S   S1        1.0  0.5125457681715488  0.1434571819845587  0.18632104131393135  1.0000
  S   S2        1.0  0.8746438614325598  0.2411769648315385  0.8914149041520432  1.0000
  O   O1        1.0  0.8585302032297477  0.19261214695870876  0.4267379054799676  1.0000
  O   O2        1.0  0.042336777900345623  0.5898829937214032  0.5956737258820795  1.0000
  O   O3        1.0  0.4706642902456224  0.41757617380062584  0.9364258719142526  1.0000
  O   O4        1.0  0.19254092569462955  0.3275144958170131  0.9122410169802606  1.0000
  O   O5        1.0  0.031947261246386915  0.858573194782366  0.2847141916718101  1.0000
  O   O6        1.0  0.7651690801139921  0.07330705900676548  0.4520974112674594  1.0000
  O   O7        1.0  0.5213823489029892  0.3482498271332588  0.5211568467202596  1.0000
  O   O8        1.0  0.7036681424360722  0.5916168667608872  0.7152727327193134  1.0000
  O   O9        1.0  0.3752409451408312  0.2843880294531118  0.8062715869455133  1.0000
  O   O10       1.0  0.5521147667896003  0.2995224898913875  0.9799979553790763  1.0000
data_image52
_chemical_formula_structural       Li4H4S2O10
_chemical_formula_sum              "Li4 H4 S2 O10"
_cell_length_a       4.90399
_cell_length_b       5.555894000000001
_cell_length_c       8.269645510084757
_cell_angle_alpha    72.8917451750904
_cell_angle_beta     90.0
_cell_angle_gamma    90.0

_space_group_name_H-M_alt    "P 1"
_space_group_IT_number       1

loop_
  _space_group_symop_operation_xyz
  'x, y, z'

loop_
  _atom_site_type_symbol
  _atom_site_label
  _atom_site_symmetry_multiplicity
  _atom_site_fract_x
  _atom_site_fract_y
  _atom_site_fract_z
  _atom_site_occupancy
  Li  Li1       1.0  0.9653756432235241  0.12043107580393553  0.2936769361840561  1.0000
  Li  Li2       1.0  0.8005532810930163  0.3673271754523739  0.9638840954576153  1.0000
  Li  Li3       1.0  0.41143185898908996  0.23686248855665326  0.4871127540245652  1.0000
  Li  Li4       1.0  0.42219494190067053  0.5595665678847581  0.8354853130877018  1.0000
  H   H1        1.0  0.20529472758062184  0.1969852619804442  0.8555517572676763  1.0000
  H   H2        1.0  0.31589049007743597  0.3553661438636482  0.6189501489279792  1.0000
  H   H3        1.0  0.7329867986263707  0.798016554210335  0.34573074558284134  1.0000
  H   H4        1.0  0.3655941469478421  0.40698051010258496  0.6202604328282177  1.0000
  S   S1        1.0  0.05185897694900632  0.556571731576696  0.6650749002583325  1.0000
  S   S2        1.0  0.4125465826364234  0.08219381206436083  0.14478290546685457  1.0000
  O   O1        1.0  0.7736897034337744  0.13887707609683275  0.6466854273458011  1.0000
  O   O2        1.0  0.6003695377148688  0.1363526029017521  0.6879964141407982  1.0000
  O   O3        1.0  0.18989697843790054  0.7671701479994226  0.759104848606512  1.0000
  O   O4        1.0  0.6115560617763549  0.5018111870158464  0.0717317956732586  1.0000
  O   O5        1.0  0.6527018894994399  0.12078474639565684  0.018846195176593028  1.0000
  O   O6        1.0  0.01268745050765574  0.9572198616806418  0.4666291787289083  1.0000
  O   O7        1.0  0.5182639724807814  0.03394660266349092  0.15260158106684685  1.0000
  O   O8        1.0  0.9204134941101074  0.5214323861291632  0.9751362903043628  1.0000
  O   O9        1.0  0.04030121135292575  0.8496803391899448  0.8570331089758838  1.0000
  O   O10       1.0  0.19148926646448672  0.47985331167001277  0.7391087825526483  1.0000
data_image53
_chemical_formula_structural       Li4H4S2O10
_chemical_formula_sum              "Li4 H4 S2 O10"
_cell_length_a       4.90399
_cell_length_b       5.555894000000001
_cell_length_c       8.269645510084757
_cell_angle_alpha    72.8917451750904
_cell_angle_beta     90.0
_cell_angle_gamma    90.0

_space_group_name_H-M_alt    "P 1"
_space_group_IT_number       1

loop_
  _space_group_symop_operation_xyz
  'x, y, z'

loop_
  _atom_site_type_symbol
  _atom_site_label
  _atom_site_symmetry_multiplicity
  _atom_site_fract_x
  _atom_site_fract_y
  _atom_site_fract_z
  _atom_site_occupancy
  Li  Li1       1.0  0.631232388317585  0.1042970314156264  0.1650166534818709  1.0000
  Li  Li2       1.0  0.8868318638997152  0.42935550631955266  0.5275506893231068  1.0000
  Li  Li3       1.0  0.09555232806451386  0.3292477538343519  0.38088060868903995  1.0000
  Li  Li4       1.0  0.03375081717967987  0.24420945113524795  0.1659945963183418  1.0000
  H   H1        1.0  0.8854746937286109  0.23646805714815855  0.26243195752613246  1.0000
  H   H2        1.0  0.6542070736177266  0.2134873433969915  0.6756336677353829  1.0000
  H   H3        1.0  0.9921855463180691  0.8776923862751573  0.27153497537074145  1.0000
  H   H4        1.0  0.6431869550142437  0.23151020100340247  0.08258481964003295  1.0000
  S   S1        1.0  0.6331392528954893  0.16527133900672197  0.7265116153284907  1.0000
  S   S2        1.0  0.7201275065308437  0.48527852864935994  0.8506161742843688  1.0000
  O   O1        1.0  0.06388770591001958  0.47214109310880303  0.31130872474750504  1.0000
  O   O2        1.0  0.7643910765182227  0.8750840963475639  0.16204159014159814  1.0000
  O   O3        1.0  0.2016455321572721  0.7179526321415324  0.39703061152249575  1.0000
  O   O4        1.0  0.09468613530043513  0.08224426384549588  0.042188737519609276  1.0000
  O   O5        1.0  0.6193081392011663  0.015599714446580037  0.7691903295490192  1.0000
  O   O6        1.0  0.45374299585819244  0.650358967948705  0.20858487021178007  1.0000
  O   O7        1.0  0.2617875640280545  0.6081446560128825  0.8463536915369332  1.0000
  O   O8        1.0  0.9942692068871111  0.2524929403443821  0.4413062739185989  1.0000
  O   O9        1.0  0.6729938009520993  0.05673501796263736  0.2731992094559246  1.0000
  O   O10       1.0  0.22339577926322818  0.5175853495020419  0.7140447627753019  1.0000
data_image54
_chemical_formula_structural       Li4H4S2O10
_chemical_formula_sum              "Li4 H4 S2 O10"
_cell_length_a       4.90399
_cell_length_b       5.555894000000001
_cell_length_c       8.269645510084757
_cell_angle_alpha    72.8917451750904
_cell_angle_beta     90.0
_cell_angle_gamma    90.0

_space_group_name_H-M_alt    "P 1"
_space_group_IT_number       1

loop_
  _space_group_symop_operation_xyz
  'x, y, z'

loop_
  _atom_site_type_symbol
  _atom_site_label
  _atom_site_symmetry_multiplicity
  _atom_site_fract_x
  _atom_site_fract_y
  _atom_site_fract_z
  _atom_site_occupancy
  Li  Li1       1.0  0.04797861399129033  0.8835631040856242  0.2245388691080734  1.0000
  Li  Li2       1.0  0.4888251193333417  0.48919889773242176  0.05976378946797922  1.0000
  Li  Li3       1.0  0.38612133290735073  0.6557674785144627  0.49145567673258483  1.0000
  Li  Li4       1.0  0.787629677914083  0.4459859881317243  0.1180965838721022  1.0000
  H   H1        1.0  0.9031506252940744  0.9907635906711221  0.7813471680274233  1.0000
  H   H2        1.0  0.9247955624014139  0.5610336977988482  0.28918820968829095  1.0000
  H   H3        1.0  0.3850364263635129  0.6383126247674227  0.43046089046401903  1.0000
  H   H4        1.0  0.0905071459710598  0.014127574628219008  0.46541177842300385  1.0000
  S   S1        1.0  0.9105831868946552  0.22164356335997581  0.6550718573853374  1.0000
  S   S2        1.0  0.382773874909617  0.14514600340044126  0.6316209970973432  1.0000
  O   O1        1.0  0.43052340706344694  0.934392869938165  0.12931780220242217  1.0000
  O   O2        1.0  0.4474237390095368  0.3533866466168547  0.16755309101426974  1.0000
  O   O3        1.0  0.24969136388972402  0.599897577543743  0.5144251917954534  1.0000
  O   O4        1.0  0.21332968899514526  0.797332288697362  0.6580590065123033  1.0000
  O   O5        1.0  0.44007544065243565  0.1460106101585552  0.5144616718171164  1.0000
  O   O6        1.0  0.30633524456061423  0.32564051845110953  0.29593242006376386  1.0000
  O   O7        1.0  0.3708613123744726  0.7654304046736797  0.5970605578040704  1.0000
  O   O8        1.0  0.11212257505394518  0.6309990041190758  0.7562502397340722  1.0000
  O   O9        1.0  0.2645023966906592  0.8016475796757732  0.9870400234722183  1.0000
  O   O10       1.0  0.45545314718037844  0.2328008780023083  0.017713939130771905  1.0000
data_image55
_chemical_formula_structural       Li4H4S2O10
_chemical_formula_sum              "Li4 H4 S2 O10"
_cell_length_a       4.90399
_cell_length_b       5.555894000000001
_cell_length_c       8.269645510084757
_cell_angle_alpha    72.8917451750904
_cell_angle_beta     90.0
_cell_angle_gamma    90.0

_space_group_name_H-M_alt    "P 1"
_space_group_IT_number       1

loop_
  _space_group_symop_operation_xyz
  'x, y, z'

loop_
  _atom_site_type_symbol
  _atom_site_label
  _atom_site_symmetry_multiplicity
  _atom_site_fract_x
  _atom_site_fract_y
  _atom_site_fract_z
  _atom_site_occupancy
  Li  Li1       1.0  0.8249563653953373  0.9074158405419439  0.6690098197432235  1.0000
  Li  Li2       1.0  0.9611843187594786  0.022366063785739243  0.07573412964120507  1.0000
  Li  Li3       1.0  0.7862968141562305  0.15875793190207332  0.8162991420831531  1.0000
  Li  Li4       1.0  0.48836238076910377  0.19691487110685557  0.4833216549595818  1.0000
  H   H1        1.0  0.7458421669434756  0.0036759348586201668  0.7292622649110854  1.0000
  H   H2        1.0  0.3543769624084234  0.7081499276682734  0.8738167307456024  1.0000
  H   H3        1.0  0.7093220865353942  0.7010465615894645  0.9511099747614935  1.0000
  H   H4        1.0  0.945727847982198  0.4734536991454661  0.4133164519444108  1.0000
  S   S1        1.0  0.026197146624326706  0.7711401208071038  0.8313625711016357  1.0000
  S   S2        1.0  0.03495466406457126  0.29374608024954796  0.8008774423506111  1.0000
  O   O1        1.0  0.6220364728360437  0.6420822746586055  0.21318960969801992  1.0000
  O   O2        1.0  0.5817304485244676  0.5952066451282008  0.5303641335340217  1.0000
  O   O3        1.0  0.15012344857677817  0.6456282248982461  0.9778561722487211  1.0000
  O   O4        1.0  0.5381745556369424  0.5396706083556637  0.8633148370208801  1.0000
  O   O5        1.0  0.44437089780694805  0.6904056711646263  0.649509195383871  1.0000
  O   O6        1.0  0.6034902068786323  0.21357053378596902  0.6064744391478598  1.0000
  O   O7        1.0  0.07303112745285034  0.3513251217955258  0.796721925958991  1.0000
  O   O8        1.0  0.12532211025245488  0.561082900967449  0.6365874192561023  1.0000
  O   O9        1.0  0.24080638302257285  0.361926676472649  0.5304821905738208  1.0000
  O   O10       1.0  0.8267722446471453  0.25977469002828  0.6505636084475555  1.0000
data_image56
_chemical_formula_structural       Li4H4S2O10
_chemical_formula_sum              "Li4 H4 S2 O10"
_cell_length_a       4.90399
_cell_length_b       5.555894000000001
_cell_length_c       8.269645510084757
_cell_angle_alpha    72.8917451750904
_cell_angle_beta     90.0
_cell_angle_gamma    90.0

_space_group_name_H-M_alt    "P 1"
_space_group_IT_number       1

loop_
  _space_group_symop_operation_xyz
  'x, y, z'

loop_
  _atom_site_type_symbol
  _atom_site_label
  _atom_site_symmetry_multiplicity
  _atom_site_fract_x
  _atom_site_fract_y
  _atom_site_fract_z
  _atom_site_occupancy
  Li  Li1       1.0  0.6567950616590679  0.9023197777569294  0.4428423169301823  1.0000
  Li  Li2       1.0  0.8598256951663643  0.3857402927824296  0.6114708541426808  1.0000
  Li  Li3       1.0  0.8310179634136148  0.5536753365304321  0.9253532593138516  1.0000
  Li  Li4       1.0  0.17570500960573554  0.8723084959201515  0.14286976086441427  1.0000
  H   H1        1.0  0.6743290186859667  0.859074036590755  0.7552394401282072  1.0000
  H   H2        1.0  0.23426596680656075  0.12817623792216182  0.6978098564432003  1.0000
  H   H3        1.0  0.3973600778263062  0.9877447383478284  0.7299396339803934  1.0000
  H   H4        1.0  0.23415166675113142  0.09146974119357765  0.8110702850390226  1.0000
  S   S1        1.0  0.10975199704989791  0.1462515991879627  0.45388101134449244  1.0000
  S   S2        1.0  0.1835086210630834  0.5881977549870498  0.8212337028235197  1.0000
  O   O1        1.0  0.3710657352930866  0.2618151097558439  0.9805747238569893  1.0000
  O   O2        1.0  0.35590366984251887  0.5528769661032129  0.644788945093751  1.0000
  O   O3        1.0  0.6602593739517033  0.9821995917882305  0.1970401604194194  1.0000
  O   O4        1.0  0.7285754723707214  0.43398325296584517  0.807074947784713  1.0000
  O   O5        1.0  0.8683389652724145  0.7540673047478776  0.29724044652539305  1.0000
  O   O6        1.0  0.062272700015455484  0.1754717854782939  0.03897196799516678  1.0000
  O   O7        1.0  0.9728560906369239  0.7932201975272619  0.7965712704462931  1.0000
  O   O8        1.0  0.21622631885111332  0.5675808933447115  0.08229056105483323  1.0000
  O   O9        1.0  0.4754131131339818  0.5860963448940311  0.9180135971146228  1.0000
  O   O10       1.0  0.34173211082816124  0.028233814286068082  0.9155736498069018  1.0000
data_image57
_chemical_formula_structural       Li4H4S2O10
_chemical_formula_sum              "Li4 H4 S2 O10"
_cell_length_a       4.90399
_cell_length_b       5.555894000000001
_cell_length_c       8.269645510084757
_cell_angle_alpha    72.8917451750904
_cell_angle_beta     90.0
_cell_angle_gamma    90.0

_space_group_name_H-M_alt    "P 1"
_space_group_IT_number       1

loop_
  _space_group_symop_operation_xyz
  'x, y, z'

loop_
  _atom_site_type_symbol
  _atom_site_label
  _atom_site_symmetry_multiplicity
  _atom_site_fract_x
  _atom_site_fract_y
  _atom_site_fract_z
  _atom_site_occupancy
  Li  Li1       1.0  0.5727006271481514  0.5213406991679221  0.48650676326360554  1.0000
  Li  Li2       1.0  0.9130062001058832  0.2543141664355062  0.8708561919338536  1.0000
  Li  Li3       1.0  0.8956761377630755  0.36163910874165595  0.9140937500633299  1.0000
  Li  Li4       1.0  0.08334765955805779  0.30888745037373155  0.043719196459278464  1.0000
  H   H1        1.0  0.9666630127467215  0.6996121047995985  0.8134718136279844  1.0000
  H   H2        1.0  0.5076721832156181  0.1995640373788774  0.48690567119047046  1.0000
  H   H3        1.0  0.36218194919638336  0.3803953768219799  0.6106124623911455  1.0000
  H   H4        1.0  0.1911842457484454  0.2254066519672051  0.26333233527839184  1.0000
  S   S1        1.0  0.38564212899655104  0.7587911293376237  0.9923221366479993  1.0000
  S   S2        1.0  0.26051757810637355  0.03314214147394523  0.4629031801596284  1.0000
  O   O1        1.0  0.8185529962647706  0.71720564016141  0.6594493967131712  1.0000
  O   O2        1.0  0.029137709992937744  0.7880145719391294  0.8130230948445387  1.0000
  O   O3        1.0  0.9459608001634479  0.7632196621998446  0.5222663865424693  1.0000
  O   O4        1.0  0.16612591443117708  0.2816825450863689  0.8799891404996742  1.0000
  O   O5        1.0  0.6135114791395608  0.9140905879903585  0.20936701926984824  1.0000
  O   O6        1.0  0.5612522321753204  0.48359397100284696  0.48408199520781636  1.0000
  O   O7        1.0  0.40427318518050015  0.9609441239081207  0.7862299382686615  1.0000
  O   O8        1.0  0.07706485618837178  0.24663297447841614  0.8804332016734406  1.0000
  O   O9        1.0  0.15169366507325321  0.19493213364330586  0.5898937821148138  1.0000
  O   O10       1.0  0.8484385975170881  0.7576893540099263  0.5739030598779209  1.0000
data_image58
_chemical_formula_structural       Li4H4S2O10
_chemical_formula_sum              "Li4 H4 S2 O10"
_cell_length_a       4.90399
_cell_length_b       5.555894000000001
_cell_length_c       8.269645510084757
_cell_angle_alpha    72.8917451750904
_cell_angle_beta     90.0
_cell_angle_gamma    90.0

_space_group_name_H-M_alt    "P 1"
_space_group_IT_number       1

loop_
  _space_group_symop_operation_xyz
  'x, y, z'

loop_
  _atom_site_type_symbol
  _atom_site_label
  _atom_site_symmetry_multiplicity
  _atom_site_fract_x
  _atom_site_fract_y
  _atom_site_fract_z
  _atom_site_occupancy
  Li  Li1       1.0  0.290265838149935  0.14410875993780792  0.5072179130511358  1.0000
  Li  Li2       1.0  0.10664083797018975  0.2803931350936182  0.6504088361834874  1.0000
  Li  Li3       1.0  0.22120439622085541  0.684956384357065  0.7730879220180213  1.0000
  Li  Li4       1.0  0.5247632842510939  0.04938762518577278  0.75714316428639  1.0000
  H   H1        1.0  0.08906995062716305  0.07361057866364717  0.7411279191728681  1.0000
  H   H2        1.0  0.8283514617942274  0.2710944372229278  0.6277925664326176  1.0000
  H   H3        1.0  0.44112930353730917  0.9478833340108395  0.3936887546442449  1.0000
  H   H4        1.0  0.4369555896264501  0.8022498976206407  0.6608210687991232  1.0000
  S   S1        1.0  0.2612308068200946  0.8678042899118736  0.46178382309153676  1.0000
  S   S2        1.0  0.47325961268506944  0.1277476751129143  0.21468543959781528  1.0000
  O   O1        1.0  0.4276241465122439  0.5881749088875949  0.12155936239287257  1.0000
  O   O2        1.0  0.8215869177365676  0.4866607808507979  0.36798713344614953  1.0000
  O   O3        1.0  0.23030552035197616  0.3349289936450077  0.8883891520090401  1.0000
  O   O4        1.0  0.9088190791662782  0.3316415650770068  0.8332809074636316  1.0000
  O   O5        1.0  0.2259048324340256  0.8382079457805958  0.08827790583018214  1.0000
  O   O6        1.0  0.26758120441809297  0.5270991330035031  0.6223552087321877  1.0000
  O   O7        1.0  0.5566415144130588  0.8884378444417962  0.5191107706632465  1.0000
  O   O8        1.0  0.17267950088717043  0.6569609212165233  0.3588187649147585  1.0000
  O   O9        1.0  0.3868088797898963  0.6227446777920704  0.124823020225449  1.0000
  O   O10       1.0  0.17173682246357203  0.15152013953775167  0.12181024911114946  1.0000
data_image59
_chemical_formula_structural       Li4H4S2O10
_chemical_formula_sum              "Li4 H4 S2 O10"
_cell_length_a       4.90399
_cell_length_b       5.555894000000001
_cell_length_c       8.269645510084757
_cell_angle_alpha    72.8917451750904
_cell_angle_beta     90.0
_cell_angle_gamma    90.0

_space_group_name_H-M_alt    "P 1"
_space_group_IT_number       1

loop_
  _space_group_symop_operation_xyz
  'x, y, z'

loop_
  _atom_site_type_symbol
  _atom_site_label
  _atom_site_symmetry_multiplicity
  _atom_site_fract_x
  _atom_site_fract_y
  _atom_site_fract_z
  _atom_site_occupancy
  Li  Li1       1.0  0.20105887344107032  0.7862472272245213  0.8668986418706481  1.0000
  Li  Li2       1.0  0.4459849778795615  0.505694032413885  0.5327592110115802  1.0000
  Li  Li3       1.0  0.3393217130796984  0.44873055804055184  0.00930861895903945  1.0000
  Li  Li4       1.0  0.5350497807376087  0.0014762720093131065  0.9210904724895954  1.0000
  H   H1        1.0  0.5048414513003081  0.524741911329329  0.6423741997568868  1.0000
  H   H2        1.0  0.29471082892268896  0.319984647911042  0.2415290696080774  1.0000
  H   H3        1.0  0.2634846563450992  0.20536876656115055  0.49868625949602574  1.0000
  H   H4        1.0  0.6095424676750554  0.5969448294490576  0.07208937243558466  1.0000
  S   S1        1.0  0.2297139938455075  0.4110959634417668  0.706347685540095  1.0000
  S   S2        1.0  0.006255628075450659  0.06305594550212845  0.13261847966350615  1.0000
  O   O1        1.0  0.5591028212220408  0.018637174973264337  0.8993207537569106  1.0000
  O   O2        1.0  0.11516915843822062  0.44389219490403775  0.3075768158887513  1.0000
  O   O3        1.0  0.6984617877751589  0.3446935984538868  0.11147144180722535  1.0000
  O   O4        1.0  0.6479500092682429  0.3505456140264869  0.161672351314337  1.0000
  O   O5        1.0  0.5073845185615937  0.2695486960292328  0.09716568715521134  1.0000
  O   O6        1.0  0.06102500483393669  0.1437734803184867  0.10798469418659806  1.0000
  O   O7        1.0  0.9559625708498061  0.8177086891446379  0.38858036836609244  1.0000
  O   O8        1.0  0.003928575897589326  0.5621470149781089  0.04701039887731895  1.0000
  O   O9        1.0  0.8266738166566938  0.1360482965101255  0.5179755521021434  1.0000
  O   O10       1.0  0.9612485694233328  0.9725160761736333  0.25901976600289345  1.0000
data_image60
_chemical_formula_structural       Li4H4S2O10
_chemical_formula_sum              "Li4 H4 S2 O10"
_cell_length_a       4.90399
_cell_length_b       5.555894000000001
_cell_length_c       8.269645510084757
_cell_angle_alpha    72.8917451750904
_cell_angle_beta     90.0
_cell_angle_gamma    90.0

_space_group_name_H-M_alt    "P 1"
_space_group_IT_number       1

loop_
  _space_group_symop_operation_xyz
  'x, y, z'

loop_
  _atom_site_type_symbol
  _atom_site_label
  _atom_site_symmetry_multiplicity
  _atom_site_fract_x
  _atom_site_fract_y
  _atom_site_fract_z
  _atom_site_occupancy
  Li  Li1       1.0  0.3899055744986981  0.5055380256380886  0.6096141971138422  1.0000
  Li  Li2       1.0  0.16733490279875696  0.6880514161312021  0.018541283585364  1.0000
  Li  Li3       1.0  0.5255539483041503  0.6997382475528866  0.5530501562170684  1.0000
  Li  Li4       1.0  0.00980158569291234  0.39992134226486087  0.14632630720734596  1.0000
  H   H1        1.0  0.9741573699284345  0.8588088820688426  0.09756806457880884  1.0000
  H   H2        1.0  0.48943540174514055  0.2889571888372302  0.6228311056038365  1.0000
  H   H3        1.0  0.4126388815930113  0.5255304188467562  0.9537079684669152  1.0000
  H   H4        1.0  0.11051082845438032  0.7748942978214473  0.9491626485832967  1.0000
  S   S1        1.0  0.3920677367132157  0.8427888107253239  0.13625241129193455  1.0000
  S   S2        1.0  0.007831305265426636  0.17857971775811166  0.44819913571700454  1.0000
  O   O1        1.0  0.47132251400034875  0.628812973969616  0.2884348989027785  1.0000
  O   O2        1.0  0.9948683198308572  0.6983748981874669  0.22164889087434858  1.0000
  O   O3        1.0  0.16012325044721365  0.19480456699966453  0.7990145168732852  1.0000
  O   O4        1.0  0.8542217527283356  0.7636012724833563  0.0939003642561147  1.0000
  O   O5        1.0  0.38030901315505616  0.35086884480551817  0.18362123993574642  1.0000
  O   O6        1.0  0.7213283726014197  0.6223643654957414  0.5879407394677401  1.0000
  O   O7        1.0  0.6511975185712799  0.16982868075137958  0.11837862466927618  1.0000
  O   O8        1.0  0.6003679153509438  0.9619554298114963  0.21089016750920564  1.0000
  O   O9        1.0  0.628197428304702  0.27219236735254526  0.6370070717021008  1.0000
  O   O10       1.0  0.9007886331528425  0.2946328268153593  0.9762200298573589  1.0000
data_image61
_chemical_formula_structural       Li4H4S2O10
_chemical_formula_sum              "Li4 H4 S2 O10"
_cell_length_a       4.90399
_cell_length_b       5.555894000000001
_cell_length_c       8.269645510084757
_cell_angle_alpha    72.8917451750904
_cell_angle_beta     90.0
_cell_angle_gamma    90.0

_space_group_name_H-M_alt    "P 1"
_space_group_IT_number       1

loop_
  _space_group_symop_operation_xyz
  'x, y, z'

loop_
  _atom_site_type_symbol
  _atom_site_label
  _atom_site_symmetry_multiplicity
  _atom_site_fract_x
  _atom_site_fract_y
  _atom_site_fract_z
  _atom_site_occupancy
  Li  Li1       1.0  0.07504622475244105  0.6059666215442121  0.25412215502001345  1.0000
  Li  Li2       1.0  0.06859085662290454  0.6313095162040554  0.001154208424850367  1.0000
  Li  Li3       1.0  0.7108003844041377  0.09590497496537864  0.6453806976787746  1.0000
  Li  Li4       1.0  0.3689963147044182  0.6743246236583218  0.32524615980219096  1.0000
  H   H1        1.0  0.49909625318832695  0.8515518000349402  0.8807136044488288  1.0000
  H   H2        1.0  0.2780854660086334  0.4002057872712612  0.06779608069336973  1.0000
  H   H3        1.0  0.31893763365224004  0.3353689794894308  0.5961216761497781  1.0000
  H   H4        1.0  0.6787169684139371  0.13650954002514482  0.5533446909394115  1.0000
  S   S1        1.0  0.1637644695583731  0.3673394415527582  0.5867989982943982  1.0000
  S   S2        1.0  0.15286168386228383  0.9513182628434151  0.8111553979106247  1.0000
  O   O1        1.0  0.932107565109618  0.3278268260473851  0.05457138731435407  1.0000
  O   O2        1.0  0.8304343800991774  0.946787175926147  0.47267931269016117  1.0000
  O   O3        1.0  0.04706639936193824  0.9360152378649218  0.2911487389355898  1.0000
  O   O4        1.0  0.45385299203917384  0.29806445236317813  0.861050114108366  1.0000
  O   O5        1.0  0.3583597933029523  0.2091532819904387  0.4324386006046552  1.0000
  O   O6        1.0  0.5632235775701702  0.34296502033248544  0.6938457833603024  1.0000
  O   O7        1.0  0.13056295819114894  0.6193055725161685  0.530958388117142  1.0000
  O   O8        1.0  0.7366874383296818  0.5489152982481755  0.5443235758575611  1.0000
  O   O9        1.0  0.9040719813201576  0.38584533822722733  0.8259315254545072  1.0000
  O   O10       1.0  0.482476944103837  0.08813530788756907  0.6559072192758322  1.0000
data_image62
_chemical_formula_structural       Li4H4S2O10
_chemical_formula_sum              "Li4 H4 S2 O10"
_cell_length_a       4.90399
_cell_length_b       5.555894000000001
_cell_length_c       8.269645510084757
_cell_angle_alpha    72.8917451750904
_cell_angle_beta     90.0
_cell_angle_gamma    90.0

_space_group_name_H-M_alt    "P 1"
_space_group_IT_number       1

loop_
  _space_group_symop_operation_xyz
  'x, y, z'

loop_
  _atom_site_type_symbol
  _atom_site_label
  _atom_site_symmetry_multiplicity
  _atom_site_fract_x
  _atom_site_fract_y
  _atom_site_fract_z
  _atom_site_occupancy
  Li  Li1       1.0  0.9948535885196179  0.48278506787028164  0.1880536110547837  1.0000
  Li  Li2       1.0  0.7203240790404379  0.5798387667746283  0.5197265261085704  1.0000
  Li  Li3       1.0  0.5787511840462685  0.2379335828591138  0.5406497973017395  1.0000
  Li  Li4       1.0  0.5494194277562201  0.4980575997615233  0.2894534324295819  1.0000
  H   H1        1.0  0.6247222432866693  0.2094289120286703  0.10243360142339952  1.0000
  H   H2        1.0  0.938194883055985  0.35232366481795907  0.40565434349991847  1.0000
  H   H3        1.0  0.6408973985817283  0.37519429298117757  0.872812319023069  1.0000
  H   H4        1.0  0.5576687949360348  0.2893805429339409  0.6635724907391705  1.0000
  S   S1        1.0  0.8064722074195743  0.7523778434842825  0.5370592885883525  1.0000
  S   S2        1.0  0.48201829148456454  0.43089273711666465  0.24251916585490108  1.0000
  O   O1        1.0  0.16888720262795687  0.35756308840063866  0.48544234357541427  1.0000
  O   O2        1.0  0.6645055038388819  0.80144557908352  0.6719393995008431  1.0000
  O   O3        1.0  0.5348481722176075  0.6735045957757393  0.3880961034446955  1.0000
  O   O4        1.0  0.24016951324301772  0.6980522241210565  0.1596738423104398  1.0000
  O   O5        1.0  0.1669747554406058  0.986452065204503  0.20010646287119016  1.0000
  O   O6        1.0  0.18457566667348146  0.7482241149991751  0.6834738063625991  1.0000
  O   O7        1.0  0.23647150571923703  0.3212259614665527  0.578986614360474  1.0000
  O   O8        1.0  0.4856036948040128  0.7220352415170055  0.32085716066649184  1.0000
  O   O9        1.0  0.6611014842055738  0.8706330645363778  0.20566770649747923  1.0000
  O   O10       1.0  0.4907594723626971  0.35164684895426035  0.06828889445750974  1.0000
data_image63
_chemical_formula_structural       Li4H4S2O10
_chemical_formula_sum              "Li4 H4 S2 O10"
_cell_length_a       4.90399
_cell_length_b       5.555894000000001
_cell_length_c       8.269645510084757
_cell_angle_alpha    72.8917451750904
_cell_angle_beta     90.0
_cell_angle_gamma    90.0

_space_group_name_H-M_alt    "P 1"
_space_group_IT_number       1

loop_
  _space_group_symop_operation_xyz
  'x, y, z'

loop_
  _atom_site_type_symbol
  _atom_site_label
  _atom_site_symmetry_multiplicity
  _atom_site_fract_x
  _atom_site_fract_y
  _atom_site_fract_z
  _atom_site_occupancy
  Li  Li1       1.0  0.2891349494457245  0.5215834744158201  0.47195328876841813  1.0000
  Li  Li2       1.0  0.1577906059101224  0.017418308649212122  0.1696176059631398  1.0000
  Li  Li3       1.0  0.5261401394964196  0.6400933963013813  0.6798341171815991  1.0000
  Li  Li4       1.0  0.8377276035025716  0.966271999059245  0.7215219381032512  1.0000
  H   H1        1.0  0.22929894737899303  0.21224405011162162  0.5873817374522332  1.0000
  H   H2        1.0  0.624346621800214  0.5385640827007592  0.7845818925343337  1.0000
  H   H3        1.0  0.7722542554838583  0.2670184597373009  0.4696177147561684  1.0000
  H   H4        1.0  0.057330084731802344  0.26731605688109994  0.2487716944888234  1.0000
  S   S1        1.0  0.6349420512560755  0.16243768681306392  0.8976679549086839  1.0000
  S   S2        1.0  0.9378145125228912  0.14930451952386647  0.9310863800346851  1.0000
  O   O1        1.0  0.7540892432443798  0.2577849634253653  0.7974196674185805  1.0000
  O   O2        1.0  0.7003065480384976  0.9383467035222566  0.7575543654966168  1.0000
  O   O3        1.0  0.6283917385153472  0.7244392319989856  0.5827788936439902  1.0000
  O   O4        1.0  0.7354901869257446  0.28825842041987926  0.9439843691361602  1.0000
  O   O5        1.0  0.9402041543507949  0.5672336099960376  0.9947532406367827  1.0000
  O   O6        1.0  0.4723142017610371  0.024273859336972237  0.8104815995320678  1.0000
  O   O7        1.0  0.2950983465416357  0.7477351487323176  0.4986343909986317  1.0000
  O   O8        1.0  0.41769481799565256  0.810048194747651  0.461727132613305  1.0000
  O   O9        1.0  0.2621600048150867  0.21546786953695118  0.8309806577453855  1.0000
  O   O10       1.0  0.34299545362591743  0.0872550648637116  0.9035740795079619  1.0000
data_image64
_chemical_formula_structural       Li4H4S2O10
_chemical_formula_sum              "Li4 H4 S2 O10"
_cell_length_a       4.90399
_cell_length_b       5.555894000000001
_cell_length_c       8.269645510084757
_cell_angle_alpha    72.8917451750904
_cell_angle_beta     90.0
_cell_angle_gamma    90.0

_space_group_name_H-M_alt    "P 1"
_space_group_IT_number       1

loop_
  _space_group_symop_operation_xyz
  'x, y, z'

loop_
  _atom_site_type_symbol
  _atom_site_label
  _atom_site_symmetry_multiplicity
  _atom_site_fract_x
  _atom_site_fract_y
  _atom_site_fract_z
  _atom_site_occupancy
  Li  Li1       1.0  0.012188339838758111  0.26752734842011705  0.875652764167171  1.0000
  Li  Li2       1.0  0.4458395004621707  0.25023329647956416  0.6008018187130801  1.0000
  Li  Li3       1.0  0.06422281236154959  0.8778275111690164  0.8510367225389928  1.0000
  Li  Li4       1.0  0.29021996166557074  0.17630326666403562  0.25161435443442315  1.0000
  H   H1        1.0  0.9934690620284528  0.5501067023724318  0.5464628416812047  1.0000
  H   H2        1.0  0.9284166777506471  0.8380529396235943  0.8850668818928398  1.0000
  H   H3        1.0  0.7436272294726223  0.30627800431102514  0.6454137125401758  1.0000
  H   H4        1.0  0.48340464825741947  0.2801280536223203  0.8965209650341421  1.0000
  S   S1        1.0  0.479405619436875  0.9010002025170252  0.5006926538189873  1.0000
  S   S2        1.0  0.4398003544192761  0.17817856860347092  0.2816836822312325  1.0000
  O   O1        1.0  0.14826315850950778  0.7257967292407557  0.6408220688463189  1.0000
  O   O2        1.0  0.2255062173353508  0.1662220590224024  0.5033804105478339  1.0000
  O   O3        1.0  0.5823737257160246  0.7068432859668974  0.9251790496055037  1.0000
  O   O4        1.0  0.39352004244574346  0.0995503505691886  0.5920432719576638  1.0000
  O   O5        1.0  0.3967862416175194  0.48155118158319965  0.8575701003719587  1.0000
  O   O6        1.0  0.17265535471960902  0.5961635769344866  0.20766743132844567  1.0000
  O   O7        1.0  0.18183766561560333  0.39834179807803594  0.4073386434465647  1.0000
  O   O8        1.0  0.814742194255814  0.35975096153561026  0.32302195008378476  1.0000
  O   O9        1.0  0.697960683144629  0.4859398459084332  0.4743534271547105  1.0000
  O   O10       1.0  0.5484696081839502  0.44736549630761147  0.5579197937913705  1.0000
data_image65
_chemical_formula_structural       Li4H4S2O10
_chemical_formula_sum              "Li4 H4 S2 O10"
_cell_length_a       4.90399
_cell_length_b       5.555894000000001
_cell_length_c       8.269645510084757
_cell_angle_alpha    72.8917451750904
_cell_angle_beta     90.0
_cell_angle_gamma    90.0

_space_group_name_H-M_alt    "P 1"
_space_group_IT_number       1

loop_
  _space_group_symop_operation_xyz
  'x, y, z'

loop_
  _atom_site_type_symbol
  _atom_site_label
  _atom_site_symmetry_multiplicity
  _atom_site_fract_x
  _atom_site_fract_y
  _atom_site_fract_z
  _atom_site_occupancy
  Li  Li1       1.0  0.31957087910268456  0.6902549287769943  0.30246792527032085  1.0000
  Li  Li2       1.0  0.9661685499595478  0.33306533098220825  0.43536510641570203  1.0000
  Li  Li3       1.0  0.5735897150589153  0.7746865693479776  0.6883171224035323  1.0000
  Li  Li4       1.0  0.7849576552398503  0.41616385825909674  0.18520406808238477  1.0000
  H   H1        1.0  0.5531103629618883  0.7823799003381282  0.5079465757589787  1.0000
  H   H2        1.0  0.038321802858263254  0.04391100024804473  0.8487090851376706  1.0000
  H   H3        1.0  0.9676735631073825  0.28008151799440384  0.4985460618045181  1.0000
  H   H4        1.0  0.310851743677631  0.7820550883188844  0.06952760275453329  1.0000
  S   S1        1.0  0.463398186955601  0.5002650452079251  0.4892206172225997  1.0000
  S   S2        1.0  0.5305291023105383  0.4183274087263271  0.5011145365424454  1.0000
  O   O1        1.0  0.3192723479587585  0.9078122139999323  0.7027106781315524  1.0000
  O   O2        1.0  0.06287561729550362  0.025264094321755692  0.949206092627719  1.0000
  O   O3        1.0  0.6117059667594731  0.9934804760850966  0.783777353586629  1.0000
  O   O4        1.0  0.6835423258889932  0.4809917240636423  0.18039832514477894  1.0000
  O   O5        1.0  0.39983653504168615  0.059659658174496144  0.6900978898629546  1.0000
  O   O6        1.0  0.7237559854984283  0.8229429642669857  0.20915871765464544  1.0000
  O   O7        1.0  0.8974862227914855  0.8741367044567596  0.8558526299893856  1.0000
  O   O8        1.0  0.0036691094283014536  0.8476417842321098  0.8677064434159547  1.0000
  O   O9        1.0  0.2694804072380066  0.7484381557442248  0.41074243595357984  1.0000
  O   O10       1.0  0.187328539788723  0.11261783819645643  0.9377178330032621  1.0000
data_image66
_chemical_formula_structural       Li4H4S2O10
_chemical_formula_sum              "Li4 H4 S2 O10"
_cell_length_a       4.90399
_cell_length_b       5.555894000000001
_cell_length_c       8.269645510084757
_cell_angle_alpha    72.8917451750904
_cell_angle_beta     90.0
_cell_angle_gamma    90.0

_space_group_name_H-M_alt    "P 1"
_space_group_IT_number       1

loop_
  _space_group_symop_operation_xyz
  'x, y, z'

loop_
  _atom_site_type_symbol
  _atom_site_label
  _atom_site_symmetry_multiplicity
  _atom_site_fract_x
  _atom_site_fract_y
  _atom_site_fract_z
  _atom_site_occupancy
  Li  Li1       1.0  0.8528861531522125  0.9544419556623325  0.4185972305422183  1.0000
  Li  Li2       1.0  0.16867773194098845  0.7187834483920597  0.04913698734890204  1.0000
  Li  Li3       1.0  0.33868438395438716  0.5085493264487013  0.42321414197795093  1.0000
  Li  Li4       1.0  0.4837045534513891  0.7940041199326515  0.38674445333890617  1.0000
  H   H1        1.0  0.05206876597367227  0.8756201243959367  0.53449568268843  1.0000
  H   H2        1.0  0.7836543428711593  0.44202434457838535  0.16633795446978183  1.0000
  H   H3        1.0  0.026595856645144522  0.7384994053281844  0.2351512021268718  1.0000
  H   H4        1.0  0.2329304008744657  0.0405229382449761  0.4778791256248951  1.0000
  S   S1        1.0  0.43584943236783147  0.7097176479874179  0.2135040886932984  1.0000
  S   S2        1.0  0.2579577951692045  0.424645533435978  0.6984661736059934  1.0000
  O   O1        1.0  0.5893261721357703  0.3061291192043427  0.5047054813767318  1.0000
  O   O2        1.0  0.690727076260373  0.5752782090494293  0.7240120439673774  1.0000
  O   O3        1.0  0.5355565436184406  0.7156258526811143  0.582653843332082  1.0000
  O   O4        1.0  0.1439267904497683  0.06935230758972466  0.9778655182453804  1.0000
  O   O5        1.0  0.2918222403677646  0.3036573764984496  0.657155376218725  1.0000
  O   O6        1.0  0.03653566213324666  0.4103658767417073  0.8108991286717355  1.0000
  O   O7        1.0  0.35516080039087683  0.9760499861004064  0.43093798379413784  1.0000
  O   O8        1.0  0.3324338651727885  0.4083223990746774  0.7153930505737662  1.0000
  O   O9        1.0  0.7723559325095266  0.20786108425818384  0.8653966482379474  1.0000
  O   O10       1.0  0.17242490546777844  0.5883656837977469  0.5941436942084692  1.0000
data_image67
_chemical_formula_structural       Li4H4S2O10
_chemical_formula_sum              "Li4 H4 S2 O10"
_cell_length_a       4.90399
_cell_length_b       5.555894000000001
_cell_length_c       8.269645510084757
_cell_angle_alpha    72.8917451750904
_cell_angle_beta     90.0
_cell_angle_gamma    90.0

_space_group_name_H-M_alt    "P 1"
_space_group_IT_number       1

loop_
  _space_group_symop_operation_xyz
  'x, y, z'

loop_
  _atom_site_type_symbol
  _atom_site_label
  _atom_site_symmetry_multiplicity
  _atom_site_fract_x
  _atom_site_fract_y
  _atom_site_fract_z
  _atom_site_occupancy
  Li  Li1       1.0  0.7304081363836303  0.6886728445533663  0.26932046536239795  1.0000
  Li  Li2       1.0  0.31199732673121616  0.7783353290287778  0.5740564777952386  1.0000
  Li  Li3       1.0  0.2771016845363192  0.9350804347777739  0.8178492549341172  1.0000
  Li  Li4       1.0  0.939725449308753  0.3447014514822513  0.8249511730391532  1.0000
  H   H1        1.0  0.24314745981246233  0.9816355243092403  0.5988355197478086  1.0000
  H   H2        1.0  0.9928994867950678  0.8015399500727654  0.7198518481191059  1.0000
  H   H3        1.0  0.8157330528483726  0.5866090345662087  0.4022945868782699  1.0000
  H   H4        1.0  0.8764792974106967  0.015880013583227992  0.9029505574144423  1.0000
  S   S1        1.0  0.20904312562197447  0.34854398923926055  0.8867801986634731  1.0000
  S   S2        1.0  0.1780088134109974  0.32155953731853515  0.9658207572065294  1.0000
  O   O1        1.0  0.8670986678916961  0.6845361601590412  0.893766431545373  1.0000
  O   O2        1.0  0.9963188783731312  0.534069757508405  0.4216842073947191  1.0000
  O   O3        1.0  0.6286733667366207  0.6965380625042599  0.5003509158268571  1.0000
  O   O4        1.0  0.3340898506285157  0.7779166611144319  0.5568492656748276  1.0000
  O   O5        1.0  0.8187076149042696  0.8831087310099974  0.423193875933066  1.0000
  O   O6        1.0  0.8590095778927207  0.6815885440446436  0.055676046293228865  1.0000
  O   O7        1.0  0.6318426745710894  0.7514688044757349  0.07548879471141845  1.0000
  O   O8        1.0  0.6154679581522942  0.19775688624940813  0.294563950272277  1.0000
  O   O9        1.0  0.9772559157572687  0.9651039852760732  0.34392856221529655  1.0000
  O   O10       1.0  0.0985627886839211  0.8036956884898245  0.2089639667829033  1.0000
data_image68
_chemical_formula_structural       Li4H4S2O10
_chemical_formula_sum              "Li4 H4 S2 O10"
_cell_length_a       4.90399
_cell_length_b       5.555894000000001
_cell_length_c       8.269645510084757
_cell_angle_alpha    72.8917451750904
_cell_angle_beta     90.0
_cell_angle_gamma    90.0

_space_group_name_H-M_alt    "P 1"
_space_group_IT_number       1

loop_
  _space_group_symop_operation_xyz
  'x, y, z'

loop_
  _atom_site_type_symbol
  _atom_site_label
  _atom_site_symmetry_multiplicity
  _atom_site_fract_x
  _atom_site_fract_y
  _atom_site_fract_z
  _atom_site_occupancy
  Li  Li1       1.0  0.2651137277716771  0.5058473923709244  0.8511618735501543  1.0000
  Li  Li2       1.0  0.9749916525324807  0.9915885051013902  0.17965073978120927  1.0000
  Li  Li3       1.0  0.22969740454573184  0.9848498885985464  0.9022653698921204  1.0000
  Li  Li4       1.0  0.667001151945442  0.02341563126537949  0.7871770681813359  1.0000
  H   H1        1.0  0.3351628405507654  0.7031867119949311  0.43012400064617395  1.0000
  H   H2        1.0  0.3079603360965848  0.4844488864764571  0.21098467869660453  1.0000
  H   H3        1.0  0.7128070571343414  0.9602619875222445  0.4605801177676767  1.0000
  H   H4        1.0  0.20236007636412978  0.7183276898576878  0.8238022942095995  1.0000
  S   S1        1.0  0.3587225272785872  0.0066340414341539145  0.8854481430025771  1.0000
  S   S2        1.0  0.06247757258825004  0.7395366253331304  0.6224501333199441  1.0000
  O   O1        1.0  0.3959983300883323  0.04237562969865394  0.43581595239811577  1.0000
  O   O2        1.0  0.0733011809643358  0.15070879220729694  0.3531520459218882  1.0000
  O   O3        1.0  0.018242607358843088  0.7325406640884466  0.15184084046632051  1.0000
  O   O4        1.0  0.6394807668111753  0.48750337900128216  0.21860535719315521  1.0000
  O   O5        1.0  0.906218438729411  0.15865674789529294  0.341718208277598  1.0000
  O   O6        1.0  0.05887368833646178  0.9617210603319108  0.5529742152430117  1.0000
  O   O7        1.0  0.08506664296146482  0.9472140853613382  0.9560321638127789  1.0000
  O   O8        1.0  0.7690583805087954  0.2947038967977278  0.2892565116053447  1.0000
  O   O9        1.0  0.5545412411447614  0.16693268460221589  0.09101756892050616  1.0000
  O   O10       1.0  0.3425643490627408  0.29486910719424486  0.7442039455636404  1.0000
data_image69
_chemical_formula_structural       Li4H4S2O10
_chemical_formula_sum              "Li4 H4 S2 O10"
_cell_length_a       4.90399
_cell_length_b       5.555894000000001
_cell_length_c       8.269645510084757
_cell_angle_alpha    72.8917451750904
_cell_angle_beta     90.0
_cell_angle_gamma    90.0

_space_group_name_H-M_alt    "P 1"
_space_group_IT_number       1

loop_
  _space_group_symop_operation_xyz
  'x, y, z'

loop_
  _atom_site_type_symbol
  _atom_site_label
  _atom_site_symmetry_multiplicity
  _atom_site_fract_x
  _atom_site_fract_y
  _atom_site_fract_z
  _atom_site_occupancy
  Li  Li1       1.0  0.0031549071427434683  0.9151473628589883  0.0886894968280103  1.0000
  Li  Li2       1.0  0.19773351616458967  0.7870874408399686  0.10249780642334372  1.0000
  Li  Li3       1.0  0.4842817615135573  0.34714328101836145  0.9471133032348007  1.0000
  Li  Li4       1.0  0.021845142357051373  0.49028146266937256  0.335263324319385  1.0000
  H   H1        1.0  0.5138841967564076  0.1407175128115341  0.0723168111871928  1.0000
  H   H2        1.0  0.7455068435519934  0.31091143237426877  0.975606500768663  1.0000
  H   H3        1.0  0.5410380854154937  0.30879989406093955  0.766575864283368  1.0000
  H   H4        1.0  0.025126063963398337  0.26279118709499016  0.657620060723275  1.0000
  S   S1        1.0  0.6649520942009985  0.8693774936255068  0.014164900407195091  1.0000
  S   S2        1.0  0.476664119400084  0.2679792314884253  0.06447125785052776  1.0000
  O   O1        1.0  0.36072361771948636  0.4971652047461248  0.15281112105003558  1.0000
  O   O2        1.0  0.4232694274978712  0.06204289651213912  0.028508261020760983  1.0000
  O   O3        1.0  0.09853112930431962  0.6030724563752301  0.5961852294858545  1.0000
  O   O4        1.0  0.8757791638490744  0.8118934779195115  0.5819267638435122  1.0000
  O   O5        1.0  0.5405167735880241  0.7715989233111031  0.8933640475734137  1.0000
  O   O6        1.0  6.219767965376377e-05  0.18058409448713064  0.36509017925709486  1.0000
  O   O7        1.0  0.511953849112615  0.7068866332701873  0.23872256558388472  1.0000
  O   O8        1.0  0.02112612035125494  0.24036492669256404  0.6122001728508621  1.0000
  O   O9        1.0  0.23097126907669008  0.13773864670656621  0.6692404593923129  1.0000
  O   O10       1.0  0.16114587057381868  0.6084430445916951  0.20803136780159548  1.0000
data_image70
_chemical_formula_structural       Li4H4S2O10
_chemical_formula_sum              "Li4 H4 S2 O10"
_cell_length_a       4.90399
_cell_length_b       5.555894000000001
_cell_length_c       8.269645510084757
_cell_angle_alpha    72.8917451750904
_cell_angle_beta     90.0
_cell_angle_gamma    90.0

_space_group_name_H-M_alt    "P 1"
_space_group_IT_number       1

loop_
  _space_group_symop_operation_xyz
  'x, y, z'

loop_
  _atom_site_type_symbol
  _atom_site_label
  _atom_site_symmetry_multiplicity
  _atom_site_fract_x
  _atom_site_fract_y
  _atom_site_fract_z
  _atom_site_occupancy
  Li  Li1       1.0  0.5182862872024998  0.28175794414710253  0.9563415106094908  1.0000
  Li  Li2       1.0  0.28394166106591  0.8864389311056584  0.18615141400368884  1.0000
  Li  Li3       1.0  0.2531202321406454  0.4405650539556518  0.9081020134035498  1.0000
  Li  Li4       1.0  0.05925895320251584  0.5380436881678179  0.1391067149816081  1.0000
  H   H1        1.0  0.2211174932308495  0.2374456727411598  0.29085193620994687  1.0000
  H   H2        1.0  0.4705474157817662  0.20142110297456384  0.9597417894747196  1.0000
  H   H3        1.0  0.9887961407075636  0.694200478726998  0.7559068342088722  1.0000
  H   H4        1.0  0.14064264809712768  0.8606956719886512  0.3877094769850373  1.0000
  S   S1        1.0  0.7616739111253992  0.08843301248271018  0.1758820756804198  1.0000
  S   S2        1.0  0.3299238793551922  0.6773089114576578  0.06632908759638667  1.0000
  O   O1        1.0  0.29660745221190155  0.5762266611127416  0.1318312241055537  1.0000
  O   O2        1.0  0.37004073383286595  0.25159135823196266  0.5717657842324115  1.0000
  O   O3        1.0  0.39191698282957077  0.46367505053058267  0.015539828920736909  1.0000
  O   O4        1.0  0.20555334890377708  0.6161664669634774  0.5673492734786123  1.0000
  O   O5        1.0  0.2395003228157293  0.36085841461317614  0.782816287712194  1.0000
  O   O6        1.0  0.735229255631566  0.5699156071059406  0.7729198476299644  1.0000
  O   O7        1.0  0.12842076539527625  0.4900954631739296  0.692299030139111  1.0000
  O   O8        1.0  0.7119959504343569  0.9385589133016765  0.8318195267347619  1.0000
  O   O9        1.0  0.18202861957252026  0.8035647077485919  0.9998398471216206  1.0000
  O   O10       1.0  0.3715866031125188  0.45361429546028376  0.2704115515516605  1.0000
data_image71
_chemical_formula_structural       Li4H4S2O10
_chemical_formula_sum              "Li4 H4 S2 O10"
_cell_length_a       4.90399
_cell_length_b       5.555894000000001
_cell_length_c       8.269645510084757
_cell_angle_alpha    72.8917451750904
_cell_angle_beta     90.0
_cell_angle_gamma    90.0

_space_group_name_H-M_alt    "P 1"
_space_group_IT_number       1

loop_
  _space_group_symop_operation_xyz
  'x, y, z'

loop_
  _atom_site_type_symbol
  _atom_site_label
  _atom_site_symmetry_multiplicity
  _atom_site_fract_x
  _atom_site_fract_y
  _atom_site_fract_z
  _atom_site_occupancy
  Li  Li1       1.0  0.4372974990401417  0.4360077028395608  0.4384898288117256  1.0000
  Li  Li2       1.0  0.5565574489883147  0.6122991065494716  0.33477968169609085  1.0000
  Li  Li3       1.0  0.04025172023102641  0.6944354075239971  0.39749908447265625  1.0000
  Li  Li4       1.0  0.6717976504005492  0.3732070327969268  0.2517747870879248  1.0000
  H   H1        1.0  0.373752846615389  0.9995201209094375  0.37710271403193474  1.0000
  H   H2        1.0  0.7446001195348799  0.9500854616053402  0.7084049425575358  1.0000
  H   H3        1.0  0.742755051527638  0.8919866576325148  0.7444143068278208  1.0000
  H   H4        1.0  0.0614579739049077  0.616272882841713  0.6812628484331071  1.0000
  S   S1        1.0  0.9569019136251882  0.9848292933311313  0.6366084082983434  1.0000
  S   S2        1.0  0.5325126720126718  0.45945578918326646  0.7816396267153323  1.0000
  O   O1        1.0  0.9097797521390021  0.20657874338212423  0.04705911921337247  1.0000
  O   O2        1.0  0.08333739032968879  0.23196517569522257  0.7898863508016802  1.0000
  O   O3        1.0  0.7649266966618598  0.5693527088878909  0.27869755821302533  1.0000
  O   O4        1.0  0.48936099832644686  0.7170281499857083  0.43437607324449345  1.0000
  O   O5        1.0  0.22197605806286447  0.10323006333783269  0.6556089579244144  1.0000
  O   O6        1.0  0.43750963849015534  0.3146868636831641  0.7512058750726283  1.0000
  O   O7        1.0  0.24681770987808704  0.40354417750495486  0.9255347390426323  1.0000
  O   O8        1.0  0.6879776353016496  0.5781131768599153  0.5970720528857782  1.0000
  O   O9        1.0  0.22438830276951194  0.9721248736605048  0.10441755372448824  1.0000
  O   O10       1.0  0.20115928817540407  0.7748260572552681  0.10822562294197269  1.0000
data_image72
_chemical_formula_structural       Li4H4S2O10
_chemical_formula_sum              "Li4 H4 S2 O10"
_cell_length_a       4.90399
_cell_length_b       5.555894000000001
_cell_length_c       8.269645510084757
_cell_angle_alpha    72.8917451750904
_cell_angle_beta     90.0
_cell_angle_gamma    90.0

_space_group_name_H-M_alt    "P 1"
_space_group_IT_number       1

loop_
  _space_group_symop_operation_xyz
  'x, y, z'

loop_
  _atom_site_type_symbol
  _atom_site_label
  _atom_site_symmetry_multiplicity
  _atom_site_fract_x
  _atom_site_fract_y
  _atom_site_fract_z
  _atom_site_occupancy
  Li  Li1       1.0  0.47756436525378376  0.8803184567950666  0.01926995476242155  1.0000
  Li  Li2       1.0  0.7099460814497434  0.48926209553610533  0.9147751348791644  1.0000
  Li  Li3       1.0  0.02292246901197359  0.977910649497062  0.6489430305082351  1.0000
  Li  Li4       1.0  0.47006383584812284  0.3186787610175088  0.8394674933515489  1.0000
  H   H1        1.0  0.3147049199324101  0.2561938634607941  0.8538186301011592  1.0000
  H   H2        1.0  0.9007872408255935  0.7440204340964556  0.24222474256293935  1.0000
  H   H3        1.0  0.31341278890613467  0.6965682229492813  0.787185249500908  1.0000
  H   H4        1.0  0.38420611806213856  0.639305853692349  0.9325784142129123  1.0000
  S   S1        1.0  0.34743379952851683  0.6957784761907533  0.6235616968479007  1.0000
  S   S2        1.0  0.3257063564378768  0.27795003238134086  0.4927194477058947  1.0000
  O   O1        1.0  0.5582247062120587  0.8692311898194021  0.35982403220259584  1.0000
  O   O2        1.0  0.8899618230061606  0.4503180052015523  0.23092096479376778  1.0000
  O   O3        1.0  0.6297928406856954  0.6810874654111103  0.495880518341437  1.0000
  O   O4        1.0  0.20268578716786578  0.9272758758161217  0.6284759974223562  1.0000
  O   O5        1.0  0.6540884487330914  0.18791134149068967  0.010609069955535233  1.0000
  O   O6        1.0  0.6005582583602518  0.813614159822464  0.49332176707684994  1.0000
  O   O7        1.0  0.9341855671955273  0.10795758944004774  0.05354073806665838  1.0000
  O   O8        1.0  0.10689378692768514  0.07848714850842953  0.03203987597953528  1.0000
  O   O9        1.0  0.7763719218783081  0.20157221029512584  0.9182091681868769  1.0000
  O   O10       1.0  0.33539455151185393  0.8536943467333913  0.7891527757165022  1.0000
data_image73
_chemical_formula_structural       Li4H4S2O10
_chemical_formula_sum              "Li4 H4 S2 O10"
_cell_length_a       4.90399
_cell_length_b       5.555894000000001
_cell_length_c       8.269645510084757
_cell_angle_alpha    72.8917451750904
_cell_angle_beta     90.0
_cell_angle_gamma    90.0

_space_group_name_H-M_alt    "P 1"
_space_group_IT_number       1

loop_
  _space_group_symop_operation_xyz
  'x, y, z'

loop_
  _atom_site_type_symbol
  _atom_site_label
  _atom_site_symmetry_multiplicity
  _atom_site_fract_x
  _atom_site_fract_y
  _atom_site_fract_z
  _atom_site_occupancy
  Li  Li1       1.0  0.7581605996238068  0.9787762762280181  0.7316565881483257  1.0000
  Li  Li2       1.0  0.1852219396387227  0.17782182071823627  0.30266713176388294  1.0000
  Li  Li3       1.0  0.3252192822401412  0.673444090760313  0.0012703882530331612  1.0000
  Li  Li4       1.0  0.10850862227380276  0.15350432612467557  0.8841715774033219  1.0000
  H   H1        1.0  0.09760796255432069  0.39953627879731357  0.6378829716704786  1.0000
  H   H2        1.0  0.7783013661392033  0.17189183784648776  0.48972830247612364  1.0000
  H   H3        1.0  0.25667779659852386  0.4173502488993108  0.3523853413644247  1.0000
  H   H4        1.0  0.1678264569491148  0.6482078562257811  0.7119399011135101  1.0000
  S   S1        1.0  0.4385033482685685  0.40828764624893665  0.9181183382170275  1.0000
  S   S2        1.0  0.6507786286529154  0.693036807817407  0.3323895586654544  1.0000
  O   O1        1.0  0.7193905503954738  0.06134001055761473  0.7807938093901612  1.0000
  O   O2        1.0  0.24443070031702518  0.74864759162665  0.5000855686375871  1.0000
  O   O3        1.0  0.41468107607215643  0.6407905425294302  0.34304294222965837  1.0000
  O   O4        1.0  0.9214407893596217  0.7963537602918223  0.6390859893872403  1.0000
  O   O5        1.0  0.1476344064285513  0.29719793068943545  0.6802977483021095  1.0000
  O   O6        1.0  0.4422638132236898  0.296702625695616  0.2813137541525066  1.0000
  O   O7        1.0  0.003303429577499628  0.18955229202401824  0.5876301963580772  1.0000
  O   O8        1.0  0.31161610945127904  0.7733909402741119  0.40120293269865215  1.0000
  O   O9        1.0  0.7167472774162889  0.8316162028349936  0.9813660923973657  1.0000
  O   O10       1.0  0.061987241730093956  0.04346311464905739  0.768681723420741  1.0000
data_image74
_chemical_formula_structural       Li4H4S2O10
_chemical_formula_sum              "Li4 H4 S2 O10"
_cell_length_a       4.90399
_cell_length_b       5.555894000000001
_cell_length_c       8.269645510084757
_cell_angle_alpha    72.8917451750904
_cell_angle_beta     90.0
_cell_angle_gamma    90.0

_space_group_name_H-M_alt    "P 1"
_space_group_IT_number       1

loop_
  _space_group_symop_operation_xyz
  'x, y, z'

loop_
  _atom_site_type_symbol
  _atom_site_label
  _atom_site_symmetry_multiplicity
  _atom_site_fract_x
  _atom_site_fract_y
  _atom_site_fract_z
  _atom_site_occupancy
  Li  Li1       1.0  0.6476239578332752  0.21392665791790932  0.8390645224717446  1.0000
  Li  Li2       1.0  0.061591595702338964  0.021797599038109183  0.7696320088580251  1.0000
  Li  Li3       1.0  0.39166223380016163  0.17056775465607643  0.3058598404750228  1.0000
  Li  Li4       1.0  0.16286066034808755  0.22560773114673793  0.5535306946840137  1.0000
  H   H1        1.0  0.28055260539986193  0.5885575308930129  0.1604705925565213  1.0000
  H   H2        1.0  0.3705179914832115  0.7471684301272035  0.8469301068798814  1.0000
  H   H3        1.0  0.6981882309773937  0.8466874645091593  0.2682018862105906  1.0000
  H   H4        1.0  0.5242353933863342  0.567895598243922  0.6549048766028136  1.0000
  S   S1        1.0  0.4965767862740904  0.8582925368100405  0.30828414554707706  1.0000
  S   S2        1.0  0.1822782983072102  0.7608372563263401  0.0036070947535336018  1.0000
  O   O1        1.0  0.23907771497033536  0.17922850695322268  0.7610696661577094  1.0000
  O   O2        1.0  0.5119172980776057  0.5324390196874447  0.7372511594439857  1.0000
  O   O3        1.0  0.02415809640660882  0.40634618974581826  0.4807940705213696  1.0000
  O   O4        1.0  0.08441850863164291  0.26743054995313287  0.20310204074485227  1.0000
  O   O5        1.0  0.876873716013506  0.3972607318428345  0.3064087412203662  1.0000
  O   O6        1.0  0.20377512951381505  0.9082330414094031  0.7853968781419098  1.0000
  O   O7        1.0  0.47072859574109316  0.8125457087007817  0.6006024800008163  1.0000
  O   O8        1.0  0.6800429553259164  0.11572277278173715  0.41918005677871406  1.0000
  O   O9        1.0  0.5333708259277046  0.4482259680517018  0.43674976110924035  1.0000
  O   O10       1.0  0.15110633801668882  0.7237614672631025  0.7322682866069954  1.0000
data_image75
_chemical_formula_structural       Li4H4S2O10
_chemical_formula_sum              "Li4 H4 S2 O10"
_cell_length_a       4.90399
_cell_length_b       5.555894000000001
_cell_length_c       8.269645510084757
_cell_angle_alpha    72.8917451750904
_cell_angle_beta     90.0
_cell_angle_gamma    90.0

_space_group_name_H-M_alt    "P 1"
_space_group_IT_number       1

loop_
  _space_group_symop_operation_xyz
  'x, y, z'

loop_
  _atom_site_type_symbol
  _atom_site_label
  _atom_site_symmetry_multiplicity
  _atom_site_fract_x
  _atom_site_fract_y
  _atom_site_fract_z
  _atom_site_occupancy
  Li  Li1       1.0  0.060288650332950056  0.6792527352226898  0.1333699107344728  1.0000
  Li  Li2       1.0  0.07898687053238973  0.5062423397321254  0.29623622726649046  1.0000
  Li  Li3       1.0  0.5917918056366034  0.31544979580212384  0.831948678707704  1.0000
  Li  Li4       1.0  0.2513215020298958  0.7612024227855727  0.5079250764101744  1.0000
  H   H1        1.0  0.5314836932811886  0.9063053204445168  0.34242061199620366  1.0000
  H   H2        1.0  0.27383481012657285  0.08749580103904009  0.3144584526307881  1.0000
  H   H3        1.0  0.8252169477054849  0.432645199354738  0.8395669669262134  1.0000
  H   H4        1.0  0.5180582869797945  0.6846027229330502  0.6164372307248414  1.0000
  S   S1        1.0  0.3963921762770042  0.37193386373110116  0.33217961981426924  1.0000
  S   S2        1.0  0.9170916096772999  0.019910254748538136  0.8224714589305222  1.0000
  O   O1        1.0  0.9229193460196257  0.3386968505583354  0.4584740729187615  1.0000
  O   O2        1.0  0.33154675329569727  0.2141938865679549  0.9151587528176606  1.0000
  O   O3        1.0  0.1543678119778633  0.8436622464214452  0.23997141304425895  1.0000
  O   O4        1.0  0.5563231963897124  0.07076645665802062  0.45382452255580574  1.0000
  O   O5        1.0  0.8088515910494607  0.5124861128861085  0.3371522122179158  1.0000
  O   O6        1.0  0.5765925967134535  0.36692697601392865  0.28411192214116454  1.0000
  O   O7        1.0  0.9559879285516217  0.6572850778757129  0.5762654995778576  1.0000
  O   O8        1.0  0.40507480734959245  0.34758133499417454  0.5338811328401789  1.0000
  O   O9        1.0  0.6112311526667327  0.36238597822375596  0.8949568932293914  1.0000
  O   O10       1.0  0.7423101416788995  0.3215941353701055  0.16191408055601642  1.0000
data_image76
_chemical_formula_structural       Li4H4S2O10
_chemical_formula_sum              "Li4 H4 S2 O10"
_cell_length_a       4.90399
_cell_length_b       5.555894000000001
_cell_length_c       8.269645510084757
_cell_angle_alpha    72.8917451750904
_cell_angle_beta     90.0
_cell_angle_gamma    90.0

_space_group_name_H-M_alt    "P 1"
_space_group_IT_number       1

loop_
  _space_group_symop_operation_xyz
  'x, y, z'

loop_
  _atom_site_type_symbol
  _atom_site_label
  _atom_site_symmetry_multiplicity
  _atom_site_fract_x
  _atom_site_fract_y
  _atom_site_fract_z
  _atom_site_occupancy
  Li  Li1       1.0  0.19989317504223436  0.45202171336859465  0.04649332779808901  1.0000
  Li  Li2       1.0  0.039450690732337534  0.23879100230988115  0.8826767295831814  1.0000
  Li  Li3       1.0  0.7681948257959448  0.22007670521270484  0.21473295311443508  1.0000
  Li  Li4       1.0  0.942940526176244  0.9002272560028359  0.6275691223563626  1.0000
  H   H1        1.0  0.47776736272498965  0.14619770052377135  0.07710515474900603  1.0000
  H   H2        1.0  0.49303828505799174  0.707323388196528  0.5854082740606827  1.0000
  H   H3        1.0  0.2545189141528681  0.4008555496111512  0.25311426544794813  1.0000
  H   H4        1.0  0.24753494700416923  0.2828419693396427  0.9737536843167618  1.0000
  S   S1        1.0  0.6770356708439067  0.060176927829161286  0.8391486944165081  1.0000
  S   S2        1.0  0.5500804730691016  0.6697907114867121  0.3837727413047105  1.0000
  O   O1        1.0  0.04722663830034435  0.54471640495467  0.7059644004912116  1.0000
  O   O2        1.0  0.20396704273298383  0.045292239206901286  0.7709045271622017  1.0000
  O   O3        1.0  0.8620640174485743  0.44277587276883423  0.8847811741288751  1.0000
  O   O4        1.0  0.5951793589047156  0.06993469153530896  0.9223117268411443  1.0000
  O   O5        1.0  0.9095335048332345  0.6187348815146834  0.24624427582602948  1.0000
  O   O6        1.0  0.05471955984830856  0.15066692885011435  0.6690101576969028  1.0000
  O   O7        1.0  0.9287134042242542  0.5663087356660981  0.18207475903909653  1.0000
  O   O8        1.0  0.28296146099455655  0.7653160624904558  0.15636048035230488  1.0000
  O   O9        1.0  0.9070744880009443  0.48988140490837395  0.8082823294389527  1.0000
  O   O10       1.0  0.369487376883626  0.04212320176884532  0.058935971872415394  1.0000
data_image77
_chemical_formula_structural       Li4H4S2O10
_chemical_formula_sum              "Li4 H4 S2 O10"
_cell_length_a       4.90399
_cell_length_b       5.555894000000001
_cell_length_c       8.269645510084757
_cell_angle_alpha    72.8917451750904
_cell_angle_beta     90.0
_cell_angle_gamma    90.0

_space_group_name_H-M_alt    "P 1"
_space_group_IT_number       1

loop_
  _space_group_symop_operation_xyz
  'x, y, z'

loop_
  _atom_site_type_symbol
  _atom_site_label
  _atom_site_symmetry_multiplicity
  _atom_site_fract_x
  _atom_site_fract_y
  _atom_site_fract_z
  _atom_site_occupancy
  Li  Li1       1.0  0.4709773979848251  0.29834213928552344  0.8502405342878774  1.0000
  Li  Li2       1.0  0.17707359755877405  0.7011212634388357  0.7472037191037089  1.0000
  Li  Li3       1.0  0.23137535114074126  0.1606158185750246  0.08794807898811996  1.0000
  Li  Li4       1.0  0.9929004986770451  0.9118895410792902  0.05959500162862241  1.0000
  H   H1        1.0  0.8542045676149428  0.5408883232157677  0.06587562616914511  1.0000
  H   H2        1.0  0.5138916000723839  0.5607753545045853  0.5297763455728273  1.0000
  H   H3        1.0  0.2149770563119091  0.06590972119010985  0.13574119884287938  1.0000
  H   H4        1.0  0.8856344828382134  0.16021039756014943  0.3458820483647287  1.0000
  S   S1        1.0  0.4461549442494288  0.3161155139096081  0.21447794465348125  1.0000
  S   S2        1.0  0.7021523828152567  0.32187280955258757  0.1642222385853529  1.0000
  O   O1        1.0  0.7192186336033046  0.8273813172345399  0.7468739610922057  1.0000
  O   O2        1.0  0.3463095157640055  0.3310834688745672  0.46181546605657786  1.0000
  O   O3        1.0  0.7291096788831055  0.3613950727158226  0.8023649377282709  1.0000
  O   O4        1.0  0.47145493669086136  0.19776966283097863  0.6678616183344275  1.0000
  O   O5        1.0  0.8737054922967218  0.34645687544252723  0.16058276913827285  1.0000
  O   O6        1.0  0.934728562599048  0.05676552443765104  0.14667778136208653  1.0000
  O   O7        1.0  0.13338514242786914  0.1913104609993752  0.6775792769622058  1.0000
  O   O8        1.0  0.572358492994681  0.8194064304698259  0.2339724653866142  1.0000
  O   O9        1.0  0.6647562016732991  0.31275684270076454  0.23038711844128557  1.0000
  O   O10       1.0  0.8826799741946161  0.7009990313090384  0.8151243944303133  1.0000
data_image78
_chemical_formula_structural       Li4H4S2O10
_chemical_formula_sum              "Li4 H4 S2 O10"
_cell_length_a       4.90399
_cell_length_b       5.555894000000001
_cell_length_c       8.269645510084757
_cell_angle_alpha    72.8917451750904
_cell_angle_beta     90.0
_cell_angle_gamma    90.0

_space_group_name_H-M_alt    "P 1"
_space_group_IT_number       1

loop_
  _space_group_symop_operation_xyz
  'x, y, z'

loop_
  _atom_site_type_symbol
  _atom_site_label
  _atom_site_symmetry_multiplicity
  _atom_site_fract_x
  _atom_site_fract_y
  _atom_site_fract_z
  _atom_site_occupancy
  Li  Li1       1.0  0.6697490304941311  0.4788698374759406  0.6931603224074934  1.0000
  Li  Li2       1.0  0.5444132156553678  0.9185417648404837  0.8490169965662062  1.0000
  Li  Li3       1.0  0.28871463995892555  0.8802496547577903  0.8526792016346008  1.0000
  Li  Li4       1.0  0.5525464592501521  0.29139446129556745  0.4668916999362409  1.0000
  H   H1        1.0  0.7240227842703462  0.4691982752410695  0.24550559557974339  1.0000
  H   H2        1.0  0.1063445177860558  0.7482556961476803  0.40005236658180365  1.0000
  H   H3        1.0  0.06679395609535277  0.2954071599524468  0.8847652188269421  1.0000
  H   H4        1.0  0.6561126294545829  0.5826898968662135  0.3456376880640164  1.0000
  S   S1        1.0  0.6332814003108069  0.34314849064685404  0.38043758808635175  1.0000
  S   S2        1.0  0.10215362859889865  0.9935319176875055  0.8818431845866144  1.0000
  O   O1        1.0  0.32673929282464087  0.09732030238956213  0.6483907325891778  1.0000
  O   O2        1.0  0.027545939781703055  0.972126817861863  0.17907545366324484  1.0000
  O   O3        1.0  0.3962672259658575  0.7640241763874656  0.25057298969477415  1.0000
  O   O4        1.0  0.8030073899426498  0.65627179981675  0.31392135625355877  1.0000
  O   O5        1.0  0.23634488167590462  0.350584291969426  0.05013434391003102  1.0000
  O   O6        1.0  0.018434595316648483  0.8869324261322618  0.12380091100931168  1.0000
  O   O7        1.0  0.995344510069117  0.31742240182938986  0.10126700415275991  1.0000
  O   O8        1.0  0.7560553164221346  0.21706643281504512  0.9021179359406233  1.0000
  O   O9        1.0  0.5253855646587908  0.8865393786691129  0.7767298717808444  1.0000
  O   O10       1.0  0.8054935755208135  0.6703915647231042  0.6589878794329707  1.0000
data_image79
_chemical_formula_structural       Li4H4S2O10
_chemical_formula_sum              "Li4 H4 S2 O10"
_cell_length_a       4.90399
_cell_length_b       5.555894000000001
_cell_length_c       8.269645510084757
_cell_angle_alpha    72.8917451750904
_cell_angle_beta     90.0
_cell_angle_gamma    90.0

_space_group_name_H-M_alt    "P 1"
_space_group_IT_number       1

loop_
  _space_group_symop_operation_xyz
  'x, y, z'

loop_
  _atom_site_type_symbol
  _atom_site_label
  _atom_site_symmetry_multiplicity
  _atom_site_fract_x
  _atom_site_fract_y
  _atom_site_fract_z
  _atom_site_occupancy
  Li  Li1       1.0  0.636822585365735  0.12954666966106743  0.9012989900656976  1.0000
  Li  Li2       1.0  0.08507964172167704  0.8725883909501135  0.8867970911087468  1.0000
  Li  Li3       1.0  0.3704574237635825  0.7256145371356979  0.16773476684466004  1.0000
  Li  Li4       1.0  0.4160549584776163  0.6608755056513473  0.6980160791426897  1.0000
  H   H1        1.0  0.46628156397491693  0.7700975826010108  0.4491925311740488  1.0000
  H   H2        1.0  0.4747676714323461  0.5118503114208579  0.9789234517229488  1.0000
  H   H3        1.0  0.6127112485701218  0.38524562027305365  0.4754446971346624  1.0000
  H   H4        1.0  0.6133309626020491  0.13239265928859822  0.21013383206445724  1.0000
  S   S1        1.0  0.12866673164535314  0.557126386789605  0.9433906784979627  1.0000
  S   S2        1.0  0.24465359561145306  0.01924445212353021  0.3458100468851626  1.0000
  O   O1        1.0  0.8217574022710323  0.07632062875200063  0.4503965630719904  1.0000
  O   O2        1.0  0.6007006380241364  0.1572372370951598  0.09840669354889542  1.0000
  O   O3        1.0  0.5220262785442173  0.48834051479934715  0.07662285165861249  1.0000
  O   O4        1.0  0.5132792751246598  0.6728120122570544  0.4312573180650361  1.0000
  O   O5        1.0  0.2850255296798423  0.8502698614029214  0.19371715525630862  1.0000
  O   O6        1.0  0.04642659891396761  0.43698366172611713  0.21177371684461832  1.0000
  O   O7        1.0  0.12901497702114284  0.970880268534529  0.15489785897079855  1.0000
  O   O8        1.0  0.11188993602991104  0.8114649968338199  0.4341633770382032  1.0000
  O   O9        1.0  0.12948524812236428  0.04541035718284547  0.6989665625151247  1.0000
  O   O10       1.0  0.05103063536807895  0.9342532115988433  0.5420846473134588  1.0000
data_image80
_chemical_formula_structural       Li4H4S2O10
_chemical_formula_sum              "Li4 H4 S2 O10"
_cell_length_a       4.90399
_cell_length_b       5.555894000000001
_cell_length_c       8.269645510084757
_cell_angle_alpha    72.8917451750904
_cell_angle_beta     90.0
_cell_angle_gamma    90.0

_space_group_name_H-M_alt    "P 1"
_space_group_IT_number       1

loop_
  _space_group_symop_operation_xyz
  'x, y, z'

loop_
  _atom_site_type_symbol
  _atom_site_label
  _atom_site_symmetry_multiplicity
  _atom_site_fract_x
  _atom_site_fract_y
  _atom_site_fract_z
  _atom_site_occupancy
  Li  Li1       1.0  0.6094496105797589  0.8178458922193386  0.3748108128202148  1.0000
  Li  Li2       1.0  0.31910972110927105  0.1411711210384965  0.7963420208543539  1.0000
  Li  Li3       1.0  0.22716458005015738  0.5110843518050388  0.6681726847309619  1.0000
  Li  Li4       1.0  0.8202458154410124  0.7161157320952043  0.37279042263980955  1.0000
  H   H1        1.0  0.7849314732011408  0.7755152638419531  0.6825331966392696  1.0000
  H   H2        1.0  0.7278708629310131  0.6182625060901046  0.7156534196401481  1.0000
  H   H3        1.0  0.7845809814170934  0.8547919632401317  0.3785933168255724  1.0000
  H   H4        1.0  0.4850348373875022  0.4813054061960429  0.471195463440381  1.0000
  S   S1        1.0  0.65299579850398  0.6300809059757739  0.7549267573049292  1.0000
  S   S2        1.0  0.050318666733801365  0.47655233135446906  0.2850751031655818  1.0000
  O   O1        1.0  0.9938694082666188  0.9164997039297305  0.07369607864529826  1.0000
  O   O2        1.0  0.22174495528452098  0.3867731610080227  0.4965873369364999  1.0000
  O   O3        1.0  0.43851012317463756  0.46127783543488476  0.7972437276039273  1.0000
  O   O4        1.0  0.35465917096007615  0.4352743428898975  0.2067882620904129  1.0000
  O   O5        1.0  0.18187385841156356  0.08151202346198261  0.8117865103413351  1.0000
  O   O6        1.0  0.871051428373903  0.9376272968947887  0.4854498994536698  1.0000
  O   O7        1.0  0.4947005001595244  0.5824942548351828  0.6869137131143361  1.0000
  O   O8        1.0  0.8408481876831502  0.5329617446986958  0.1745032254839316  1.0000
  O   O9        1.0  0.9281430735718459  0.2644125500228256  0.09286727753351443  1.0000
  O   O10       1.0  0.05391244776546955  0.26714401226490736  0.6818355954019353  1.0000
data_image81
_chemical_formula_structural       Li4H4S2O10
_chemical_formula_sum              "Li4 H4 S2 O10"
_cell_length_a       4.90399
_cell_length_b       5.555894000000001
_cell_length_c       8.269645510084757
_cell_angle_alpha    72.8917451750904
_cell_angle_beta     90.0
_cell_angle_gamma    90.0

_space_group_name_H-M_alt    "P 1"
_space_group_IT_number       1

loop_
  _space_group_symop_operation_xyz
  'x, y, z'

loop_
  _atom_site_type_symbol
  _atom_site_label
  _atom_site_symmetry_multiplicity
  _atom_site_fract_x
  _atom_site_fract_y
  _atom_site_fract_z
  _atom_site_occupancy
  Li  Li1       1.0  0.8694379552034661  0.9441507873707451  0.6412102637405042  1.0000
  Li  Li2       1.0  0.7014926467672922  0.8209526995196939  0.014994177734479308  1.0000
  Li  Li3       1.0  0.5568892738083377  0.592539066914469  0.0075589981861412525  1.0000
  Li  Li4       1.0  0.5713431909680367  0.154798025614582  0.7046278932830319  1.0000
  H   H1        1.0  0.3356262443703599  0.011005543899955228  0.23701568599790335  1.0000
  H   H2        1.0  0.6894744448363781  0.16041738027706742  0.0673510383348912  1.0000
  H   H3        1.0  0.4311937551246956  0.2527101659215987  0.945221827540081  1.0000
  H   H4        1.0  0.26921014999970794  0.02522895860602148  0.7710410504369065  1.0000
  S   S1        1.0  0.029989026254042983  0.1266081822104752  0.5252910443814471  1.0000
  S   S2        1.0  0.459905703086406  0.5765541960136034  0.5961449185851961  1.0000
  O   O1        1.0  0.45768213272094727  0.3457476412404503  0.6385627922718413  1.0000
  O   O2        1.0  0.9591851361328736  0.09399006982584979  0.24953224958153442  1.0000
  O   O3        1.0  0.08437978150323033  0.768273159104865  0.3051215480081737  1.0000
  O   O4        1.0  0.3203889360593166  0.48117167316377163  0.385142329178052  1.0000
  O   O5        1.0  0.9167396007396746  0.9643730829120614  0.7969691627658904  1.0000
  O   O6        1.0  0.011128985788673162  0.23299676878377795  0.7859969879500568  1.0000
  O   O7        1.0  0.020362670184113085  0.5412539321405347  0.6499308721395209  1.0000
  O   O8        1.0  0.22643008478917181  0.12777666392503306  0.14240443997550756  1.0000
  O   O9        1.0  0.3744856084231287  0.5983742976095527  0.98976994867553  1.0000
  O   O10       1.0  0.17222284153103828  0.4195283227600157  0.9058116165688261  1.0000
data_image82
_chemical_formula_structural       Li4H4S2O10
_chemical_formula_sum              "Li4 H4 S2 O10"
_cell_length_a       4.90399
_cell_length_b       5.555894000000001
_cell_length_c       8.269645510084757
_cell_angle_alpha    72.8917451750904
_cell_angle_beta     90.0
_cell_angle_gamma    90.0

_space_group_name_H-M_alt    "P 1"
_space_group_IT_number       1

loop_
  _space_group_symop_operation_xyz
  'x, y, z'

loop_
  _atom_site_type_symbol
  _atom_site_label
  _atom_site_symmetry_multiplicity
  _atom_site_fract_x
  _atom_site_fract_y
  _atom_site_fract_z
  _atom_site_occupancy
  Li  Li1       1.0  0.5439057617913932  0.21426403970690444  0.43151365383528173  1.0000
  Li  Li2       1.0  0.5189068175968714  0.2197502909693867  0.02946742612402886  1.0000
  Li  Li3       1.0  0.38664103008341044  0.15370678971521556  0.9563324530608952  1.0000
  Li  Li4       1.0  0.05628594243898988  0.46299809822812676  0.6770212717819959  1.0000
  H   H1        1.0  0.31323856936069205  0.7686124083993491  0.8542398768477142  1.0000
  H   H2        1.0  0.9064014907926321  0.49365001544356346  0.277907655981835  1.0000
  H   H3        1.0  0.18227553012548015  0.5604010538663715  0.26224969106260687  1.0000
  H   H4        1.0  0.19906655047088861  0.099864644871559  0.15408633928745985  1.0000
  S   S1        1.0  0.6713738252874464  0.5428903698921204  0.06130389799363911  1.0000
  S   S2        1.0  0.23682948178611696  0.7158903349773027  0.14444899978116155  1.0000
  O   O1        1.0  0.613858467200771  0.9365853331692051  0.8415017162624281  1.0000
  O   O2        1.0  0.7538584514986724  0.2604439722474581  0.18280183657770976  1.0000
  O   O3        1.0  0.6791080152615905  0.2935663151583867  0.8518258219119161  1.0000
  O   O4        1.0  0.7707950279582292  0.2099043419584632  0.06019078858662397  1.0000
  O   O5        1.0  0.23367920712917112  0.006425885076168925  0.04813075572019443  1.0000
  O   O6        1.0  0.4096750607714057  0.8655231706798077  0.258312507532537  1.0000
  O   O7        1.0  0.0009101276518777013  0.5064519447187195  0.07690539956092834  1.0000
  O   O8        1.0  0.11701601184904575  0.28405207640025765  0.13780820497777313  1.0000
  O   O9        1.0  0.15133249340578914  0.34818901075050235  0.2044399690348655  1.0000
  O   O10       1.0  0.030823128297924995  0.34827002324163914  0.5957522326207254  1.0000
data_image83
_chemical_formula_structural       Li4H4S2O10
_chemical_formula_sum              "Li4 H4 S2 O10"
_cell_length_a       4.90399
_cell_length_b       5.555894000000001
_cell_length_c       8.269645510084757
_cell_angle_alpha    72.8917451750904
_cell_angle_beta     90.0
_cell_angle_gamma    90.0

_space_group_name_H-M_alt    "P 1"
_space_group_IT_number       1

loop_
  _space_group_symop_operation_xyz
  'x, y, z'

loop_
  _atom_site_type_symbol
  _atom_site_label
  _atom_site_symmetry_multiplicity
  _atom_site_fract_x
  _atom_site_fract_y
  _atom_site_fract_z
  _atom_site_occupancy
  Li  Li1       1.0  0.9157881310675293  0.22841709048952907  0.10313417948782444  1.0000
  Li  Li2       1.0  0.6554729912895709  0.11069525172933936  0.5403918910305947  1.0000
  Li  Li3       1.0  0.26141733388067223  0.5496818209066987  0.7767280482221395  1.0000
  Li  Li4       1.0  0.8332192781381309  0.2367735874140635  0.11993753386195749  1.0000
  H   H1        1.0  0.10002747795078903  0.2306367138226051  0.7808597548864782  1.0000
  H   H2        1.0  0.603490131907165  0.8032455965876579  0.7411833206524534  1.0000
  H   H3        1.0  0.17503890139050782  0.17780806100927293  0.32938398176338524  1.0000
  H   H4        1.0  0.6014145272783935  0.20305526032461785  0.0201739021576941  1.0000
  S   S1        1.0  0.6830333715770394  0.016453358810395002  0.3497612024657428  1.0000
  S   S2        1.0  0.6796962455846369  0.30917501490330324  0.5236375455278903  1.0000
  O   O1        1.0  0.5900519965216517  0.751841860874265  0.29890539252664894  1.0000
  O   O2        1.0  0.7244040422374383  0.06905198410095181  0.3976451788912527  1.0000
  O   O3        1.0  0.35106461495161057  0.6053280652413378  0.8297581819351763  1.0000
  O   O4        1.0  0.40094512759242207  0.5115768363466486  0.6217445712827612  1.0000
  O   O5        1.0  0.8265273994620657  0.5948172888020054  0.10508925921749324  1.0000
  O   O6        1.0  0.40685439528897405  0.7628167429938912  0.4935334171168506  1.0000
  O   O7        1.0  0.2785719248931855  0.481790969191934  0.02651141572277993  1.0000
  O   O8        1.0  0.7140706873033196  0.559478800627403  0.32991141034290195  1.0000
  O   O9        1.0  0.8921331220772117  0.6337549213785678  0.3375005582347512  1.0000
  O   O10       1.0  0.836102451197803  0.6965306741185486  0.8534048348083161  1.0000
data_image84
_chemical_formula_structural       Li4H4S2O10
_chemical_formula_sum              "Li4 H4 S2 O10"
_cell_length_a       4.90399
_cell_length_b       5.555894000000001
_cell_length_c       8.269645510084757
_cell_angle_alpha    72.8917451750904
_cell_angle_beta     90.0
_cell_angle_gamma    90.0

_space_group_name_H-M_alt    "P 1"
_space_group_IT_number       1

loop_
  _space_group_symop_operation_xyz
  'x, y, z'

loop_
  _atom_site_type_symbol
  _atom_site_label
  _atom_site_symmetry_multiplicity
  _atom_site_fract_x
  _atom_site_fract_y
  _atom_site_fract_z
  _atom_site_occupancy
  Li  Li1       1.0  0.9894615672528744  0.04841531388228759  0.8713454779936001  1.0000
  Li  Li2       1.0  0.0007846187800168991  0.5453187150415033  0.7772247256943956  1.0000
  Li  Li3       1.0  0.020170365314697847  0.4711682500783354  0.7643596406560391  1.0000
  Li  Li4       1.0  0.6432381486520171  0.6683132225880399  0.8261491779703647  1.0000
  H   H1        1.0  0.9958678952461923  0.9641676996834576  0.07012625690549612  1.0000
  H   H2        1.0  0.9813215686008334  0.9827626431360841  0.6300506596744526  1.0000
  H   H3        1.0  0.8457085264381021  0.1311760765966028  0.9970994468894787  1.0000
  H   H4        1.0  0.31547850277274847  0.9904623235925101  0.5471488373586908  1.0000
  S   S1        1.0  0.0382330910069868  0.7709096072940156  0.850163580966182  1.0000
  S   S2        1.0  0.10741378739476204  0.14801776909735054  0.19937644572928548  1.0000
  O   O1        1.0  0.910128399496898  0.7261084280835348  0.7462478933157399  1.0000
  O   O2        1.0  0.22499183472245932  0.6032317866556696  0.36362575431121513  1.0000
  O   O3        1.0  0.34181011701002717  0.42543015666888095  0.19894064962863922  1.0000
  O   O4        1.0  0.04739889720804058  0.15797481790650636  0.5294228925486095  1.0000
  O   O5        1.0  0.011576758937394516  0.33635303034679964  0.02146892511518672  1.0000
  O   O6        1.0  0.274764824192971  0.9695453140884638  0.2322766287252307  1.0000
  O   O7        1.0  0.2874082832131535  0.7474430215515895  0.13534156349487603  1.0000
  O   O8        1.0  0.2722768825478852  0.8917939467355609  0.8527638398809358  1.0000
  O   O9        1.0  0.6813395931385458  0.16042123618535697  0.24143735092366114  1.0000
  O   O10       1.0  0.4671287923119962  0.7246976136229932  0.8643352861108724  1.0000
data_image85
_chemical_formula_structural       Li4H4S2O10
_chemical_formula_sum              "Li4 H4 S2 O10"
_cell_length_a       4.90399
_cell_length_b       5.555894000000001
_cell_length_c       8.269645510084757
_cell_angle_alpha    72.8917451750904
_cell_angle_beta     90.0
_cell_angle_gamma    90.0

_space_group_name_H-M_alt    "P 1"
_space_group_IT_number       1

loop_
  _space_group_symop_operation_xyz
  'x, y, z'

loop_
  _atom_site_type_symbol
  _atom_site_label
  _atom_site_symmetry_multiplicity
  _atom_site_fract_x
  _atom_site_fract_y
  _atom_site_fract_z
  _atom_site_occupancy
  Li  Li1       1.0  0.6945365872234106  0.2930197133682668  0.24761178105836734  1.0000
  Li  Li2       1.0  0.2494944203644991  0.5800826353952289  0.3339872539509088  1.0000
  Li  Li3       1.0  0.8064918364398181  0.9105982411419973  0.6790186755824834  1.0000
  Li  Li4       1.0  0.6644902979023755  0.9748569716466591  0.6809784905053675  1.0000
  H   H1        1.0  0.23739548347657546  0.529914797283709  0.7603636076673865  1.0000
  H   H2        1.0  0.1897398941218853  0.8789760582149029  0.8843486616096925  1.0000
  H   H3        1.0  0.18949203321244568  0.27435220032930374  0.6807558963773772  1.0000
  H   H4        1.0  0.4247261555865407  0.11204372745123692  0.6396732829743996  1.0000
  S   S1        1.0  0.6869692818290787  0.9565815532114357  0.49441027257125825  1.0000
  S   S2        1.0  0.8139589694328606  0.5556160516862292  0.46677244757302105  1.0000
  O   O1        1.0  0.13866626797243953  0.32420211194403237  0.2067075012018904  1.0000
  O   O2        1.0  0.9436746662249789  0.8742069659201661  0.31484081997768953  1.0000
  O   O3        1.0  0.8676758990623057  0.6356263385387138  0.09964669984765351  1.0000
  O   O4        1.0  0.40600891353096813  0.10396065353415906  0.9993403503322043  1.0000
  O   O5        1.0  0.529745001316769  0.056429635849781334  0.5549514471786097  1.0000
  O   O6        1.0  0.01406086329370737  0.6784290657378733  0.46254689153283834  1.0000
  O   O7        1.0  0.11925759946461767  0.19004635245801182  0.5075849022250623  1.0000
  O   O8        1.0  0.3566208593547344  0.8967101863818243  0.1854641396785155  1.0000
  O   O9        1.0  0.6168662570416927  0.6031530734617263  0.07198580648400821  1.0000
  O   O10       1.0  0.025806864257901907  0.3816550690680742  0.40802025934681296  1.0000
data_image86
_chemical_formula_structural       Li4H4S2O10
_chemical_formula_sum              "Li4 H4 S2 O10"
_cell_length_a       4.90399
_cell_length_b       5.555894000000001
_cell_length_c       8.269645510084757
_cell_angle_alpha    72.8917451750904
_cell_angle_beta     90.0
_cell_angle_gamma    90.0

_space_group_name_H-M_alt    "P 1"
_space_group_IT_number       1

loop_
  _space_group_symop_operation_xyz
  'x, y, z'

loop_
  _atom_site_type_symbol
  _atom_site_label
  _atom_site_symmetry_multiplicity
  _atom_site_fract_x
  _atom_site_fract_y
  _atom_site_fract_z
  _atom_site_occupancy
  Li  Li1       1.0  0.46120998961851  0.5847402189392596  0.7627341260085814  1.0000
  Li  Li2       1.0  0.4712923737242818  0.7427343956660479  0.02337156212888658  1.0000
  Li  Li3       1.0  0.6950046375277452  0.05552263790741563  0.09788762615062296  1.0000
  Li  Li4       1.0  0.980117748491466  0.5574016143800691  0.9128983014961705  1.0000
  H   H1        1.0  0.3156977004255168  0.323088243836537  0.5843682195991278  1.0000
  H   H2        1.0  0.4677708321250975  0.3488053111359477  0.8026256461744197  1.0000
  H   H3        1.0  0.39609581348486245  0.9416802558116615  0.3831390078703407  1.0000
  H   H4        1.0  0.1491446071304381  0.8353683950845152  0.37103825295343995  1.0000
  S   S1        1.0  0.3039631831343286  0.16939261939842254  0.016876164125278592  1.0000
  S   S2        1.0  0.8225309082772583  0.46566509507829323  0.18767520133405924  1.0000
  O   O1        1.0  0.7311751458328217  0.85330233926652  0.7543150780256838  1.0000
  O   O2        1.0  0.4239211924141273  0.0605544903955888  0.9802588191814721  1.0000
  O   O3        1.0  0.5588705046102405  0.24996313704468776  0.04867380089126527  1.0000
  O   O4        1.0  0.16522484744200483  0.5064244316890836  0.6769590440089814  1.0000
  O   O5        1.0  0.8443908061017282  0.012476548494305462  0.6825423040427268  1.0000
  O   O6        1.0  0.9917042735032737  0.05379184614866972  0.891131850425154  1.0000
  O   O7        1.0  0.7747363108210266  0.3508117055607727  0.7879184662597254  1.0000
  O   O8        1.0  0.25799261895008385  0.19205209234496579  0.11556396482046694  1.0000
  O   O9        1.0  0.568846913985908  0.39220879576168954  0.4196722235355992  1.0000
  O   O10       1.0  0.9242358794435859  0.010018020402640104  0.22224342508707196  1.0000
data_image87
_chemical_formula_structural       Li4H4S2O10
_chemical_formula_sum              "Li4 H4 S2 O10"
_cell_length_a       4.90399
_cell_length_b       5.555894000000001
_cell_length_c       8.269645510084757
_cell_angle_alpha    72.8917451750904
_cell_angle_beta     90.0
_cell_angle_gamma    90.0

_space_group_name_H-M_alt    "P 1"
_space_group_IT_number       1

loop_
  _space_group_symop_operation_xyz
  'x, y, z'

loop_
  _atom_site_type_symbol
  _atom_site_label
  _atom_site_symmetry_multiplicity
  _atom_site_fract_x
  _atom_site_fract_y
  _atom_site_fract_z
  _atom_site_occupancy
  Li  Li1       1.0  0.42084896634332836  0.227514055557549  0.6857559725176543  1.0000
  Li  Li2       1.0  0.14247739128768444  0.21438517817296088  0.6556211595889181  1.0000
  Li  Li3       1.0  0.4362757302587852  0.3639799531083554  0.6017175086308271  1.0000
  Li  Li4       1.0  0.10579629195854068  0.3522173741366714  0.007356934831477702  1.0000
  H   H1        1.0  0.30959709361195564  0.05673051835037768  0.7393927774392068  1.0000
  H   H2        1.0  0.6885878778994083  0.09803175879642367  0.13107718268292956  1.0000
  H   H3        1.0  0.4169772795867175  0.013274854980409145  0.4600769824173767  1.0000
  H   H4        1.0  0.9168826639652252  0.17376730852993205  0.6770578402793035  1.0000
  S   S1        1.0  0.9747669519274496  0.5092496366705745  0.1613720147870481  1.0000
  S   S2        1.0  0.45735017862170935  0.05476128129521385  0.8677634776104242  1.0000
  O   O1        1.0  0.7653039922006428  0.09825501220620936  0.9585419686918613  1.0000
  O   O2        1.0  0.21173884556628764  0.45574276137631387  0.34185199602507055  1.0000
  O   O3        1.0  0.691587841603905  0.8857598443719326  0.002597995800897479  1.0000
  O   O4        1.0  0.6978889935417101  0.2480491619789973  0.5744316801428795  1.0000
  O   O5        1.0  0.8024930019164458  0.47126628912519664  0.0581849564332515  1.0000
  O   O6        1.0  0.13832884188741446  0.7726584612391889  0.6191287427209318  1.0000
  O   O7        1.0  0.6212555918609723  0.2599426854867488  0.005761300679296255  1.0000
  O   O8        1.0  0.2938272214960307  0.712441322801169  0.9723121413262561  1.0000
  O   O9        1.0  0.6682145732920617  0.10801339475437999  0.7375091548892669  1.0000
  O   O10       1.0  0.34028911171481013  0.5103610563091934  0.3478005430661142  1.0000
data_image88
_chemical_formula_structural       Li4H4S2O10
_chemical_formula_sum              "Li4 H4 S2 O10"
_cell_length_a       4.90399
_cell_length_b       5.555894000000001
_cell_length_c       8.269645510084757
_cell_angle_alpha    72.8917451750904
_cell_angle_beta     90.0
_cell_angle_gamma    90.0

_space_group_name_H-M_alt    "P 1"
_space_group_IT_number       1

loop_
  _space_group_symop_operation_xyz
  'x, y, z'

loop_
  _atom_site_type_symbol
  _atom_site_label
  _atom_site_symmetry_multiplicity
  _atom_site_fract_x
  _atom_site_fract_y
  _atom_site_fract_z
  _atom_site_occupancy
  Li  Li1       1.0  0.771710240514949  0.061532233376055956  0.09739311411976814  1.0000
  Li  Li2       1.0  0.600489005446434  0.5338496540207416  0.6127626965753734  1.0000
  Li  Li3       1.0  0.12746622640406713  0.458508740644902  0.6923670563846827  1.0000
  Li  Li4       1.0  0.904765339102596  0.9565949678653851  0.3455452932976186  1.0000
  H   H1        1.0  0.5033592728432268  0.09430074039846659  0.9216755228117108  1.0000
  H   H2        1.0  0.9515620116144419  0.006115669850260019  0.42564305625273846  1.0000
  H   H3        1.0  0.06201677629724145  0.03146754764020443  0.408477422373835  1.0000
  H   H4        1.0  0.03862124076113105  0.5101517264847644  0.40212029474787414  1.0000
  S   S1        1.0  0.689187604439212  0.6556245129322633  0.7387167776469141  1.0000
  S   S2        1.0  0.25538945419248194  0.9910863099503331  0.763890627073124  1.0000
  O   O1        1.0  0.9642749151680619  0.7157317389792297  0.23564668526523747  1.0000
  O   O2        1.0  0.28141691838391125  0.10202628967817873  0.3537647115299478  1.0000
  O   O3        1.0  0.24277494382113218  0.7004498014721321  0.00991454697214067  1.0000
  O   O4        1.0  0.04604474455118179  0.9965452718315646  0.7048106080619618  1.0000
  O   O5        1.0  0.2397778062731959  0.8624583087512292  0.41997364757116884  1.0000
  O   O6        1.0  0.4367745188064873  0.8020353056490421  0.7331713186576962  1.0000
  O   O7        1.0  0.11827158858068287  0.7434427889384096  0.3159959636395797  1.0000
  O   O8        1.0  0.9308126210235059  0.22068126150406897  0.7930052817100659  1.0000
  O   O9        1.0  0.41779028810560703  0.7090554509777576  0.24587293967488222  1.0000
  O   O10       1.0  0.4020891301333904  0.8454048046842217  0.013252520700916648  1.0000
data_image89
_chemical_formula_structural       Li4H4S2O10
_chemical_formula_sum              "Li4 H4 S2 O10"
_cell_length_a       4.90399
_cell_length_b       5.555894000000001
_cell_length_c       8.269645510084757
_cell_angle_alpha    72.8917451750904
_cell_angle_beta     90.0
_cell_angle_gamma    90.0

_space_group_name_H-M_alt    "P 1"
_space_group_IT_number       1

loop_
  _space_group_symop_operation_xyz
  'x, y, z'

loop_
  _atom_site_type_symbol
  _atom_site_label
  _atom_site_symmetry_multiplicity
  _atom_site_fract_x
  _atom_site_fract_y
  _atom_site_fract_z
  _atom_site_occupancy
  Li  Li1       1.0  0.8158312784507871  0.23127726651728153  0.34778374002780765  1.0000
  Li  Li2       1.0  0.9675638349726796  0.8515179974492639  0.08092441270127892  1.0000
  Li  Li3       1.0  0.4098724290379323  0.6546966722235084  0.6919304120820016  1.0000
  Li  Li4       1.0  0.8635811293497682  0.9634243277832866  0.9992185679730028  1.0000
  H   H1        1.0  0.530540575273335  0.6422587647102773  0.9237857256084681  1.0000
  H   H2        1.0  0.16127996006980538  0.6999909025616944  0.7552191486174706  1.0000
  H   H3        1.0  0.08409812254831195  0.19846282061189413  0.7468216510605998  1.0000
  H   H4        1.0  0.2655056593939662  0.7024093071668176  0.8201130134984851  1.0000
  S   S1        1.0  0.5561881734174676  0.030091437860392034  0.5103685643989593  1.0000
  S   S2        1.0  0.7846971745602787  0.25281758268829435  0.6919739823788404  1.0000
  O   O1        1.0  0.9786153065506369  0.593569181561179  0.7363618987437803  1.0000
  O   O2        1.0  0.40132652199827135  0.5738629426632542  0.8094093643012457  1.0000
  O   O3        1.0  0.7250801986083388  0.7956355060596252  0.9774622882250696  1.0000
  O   O4        1.0  0.7024862334365025  0.8576325726462528  0.02223287458764389  1.0000
  O   O5        1.0  0.49170836264966056  0.3016104085254483  0.9210017980076373  1.0000
  O   O6        1.0  0.11040944326668978  0.1902006957679987  0.5546372341923416  1.0000
  O   O7        1.0  0.1291075706249103  0.6165716886025621  0.7383344913832843  1.0000
  O   O8        1.0  0.5873282302636653  0.4181282273202669  0.4703589966520667  1.0000
  O   O9        1.0  0.5494156160857528  0.6414832132868469  0.41982427341281436  1.0000
  O   O10       1.0  0.940046495757997  0.6137729999609292  0.8235973572882358  1.0000
data_image90
_chemical_formula_structural       Li4H4S2O10
_chemical_formula_sum              "Li4 H4 S2 O10"
_cell_length_a       4.90399
_cell_length_b       5.555894000000001
_cell_length_c       8.269645510084757
_cell_angle_alpha    72.8917451750904
_cell_angle_beta     90.0
_cell_angle_gamma    90.0

_space_group_name_H-M_alt    "P 1"
_space_group_IT_number       1

loop_
  _space_group_symop_operation_xyz
  'x, y, z'

loop_
  _atom_site_type_symbol
  _atom_site_label
  _atom_site_symmetry_multiplicity
  _atom_site_fract_x
  _atom_site_fract_y
  _atom_site_fract_z
  _atom_site_occupancy
  Li  Li1       1.0  0.13993173278868198  0.10235132975503802  0.549584755091928  1.0000
  Li  Li2       1.0  0.8613714380189776  0.8413941457401961  0.4897697512060404  1.0000
  Li  Li3       1.0  0.7977042738930322  0.6071613205131143  0.8095447833184153  1.0000
  Li  Li4       1.0  0.8334208116866648  0.15748895634897053  0.981656568008475  1.0000
  H   H1        1.0  0.8953315027756616  0.6892491432372481  0.4188754912465811  1.0000
  H   H2        1.0  0.4304304523393512  0.6383319511078298  0.40468702517682686  1.0000
  H   H3        1.0  0.3948114113882184  0.31060722935944796  0.5775916075799614  1.0000
  H   H4        1.0  0.6050918255932629  0.3968924042856088  0.7113746132235974  1.0000
  S   S1        1.0  0.219059307128191  0.5297533784760162  0.7107663649367169  1.0000
  S   S2        1.0  0.6696676556020975  0.6553254457539879  0.9297731947153807  1.0000
  O   O1        1.0  0.8817298070061952  0.3978247303602984  0.5092069697275292  1.0000
  O   O2        1.0  0.3888608601409942  0.06878214571042918  0.6026549657108262  1.0000
  O   O3        1.0  0.16868110094219446  0.5279140967904823  0.7378361423034221  1.0000
  O   O4        1.0  0.4018471925519407  0.00543232774361968  0.8603930427925661  1.0000
  O   O5        1.0  0.2922631951223593  0.6637223338475451  0.4620894715189934  1.0000
  O   O6        1.0  0.31605877075344324  0.13893281342461705  0.7539741401560605  1.0000
  O   O7        1.0  0.2947811234043911  0.6240337711642496  0.10030390985775739  1.0000
  O   O8        1.0  0.6271691846195608  0.001634322540667199  0.8969346816884354  1.0000
  O   O9        1.0  0.15551532828249037  0.5841702572070062  0.6465458310849499  1.0000
  O   O10       1.0  0.8941238150000572  0.9805414928123355  0.04683974484214559  1.0000
data_image91
_chemical_formula_structural       Li4H4S2O10
_chemical_formula_sum              "Li4 H4 S2 O10"
_cell_length_a       4.90399
_cell_length_b       5.555894000000001
_cell_length_c       8.269645510084757
_cell_angle_alpha    72.8917451750904
_cell_angle_beta     90.0
_cell_angle_gamma    90.0

_space_group_name_H-M_alt    "P 1"
_space_group_IT_number       1

loop_
  _space_group_symop_operation_xyz
  'x, y, z'

loop_
  _atom_site_type_symbol
  _atom_site_label
  _atom_site_symmetry_multiplicity
  _atom_site_fract_x
  _atom_site_fract_y
  _atom_site_fract_z
  _atom_site_occupancy
  Li  Li1       1.0  0.5648009092547  0.5480235374998301  0.41736616485286504  1.0000
  Li  Li2       1.0  0.4649541610851884  0.7386273602023721  0.927027067868039  1.0000
  Li  Li3       1.0  0.9903338669100776  0.7952439694199711  0.16449151863344014  1.0000
  Li  Li4       1.0  0.7287326571531594  0.34651208331342787  0.684774515684694  1.0000
  H   H1        1.0  0.6985745709389448  0.17108478001318872  0.8179448521696031  1.0000
  H   H2        1.0  0.1346870232373476  0.4978571143001318  0.8523920678708237  1.0000
  H   H3        1.0  0.6468096170574427  0.4316622829064727  0.04014302708674222  1.0000
  H   H4        1.0  0.26379668852314353  0.4269240826833993  0.6225699476199225  1.0000
  S   S1        1.0  0.5564003579202108  0.8562145719770342  0.31886787072289735  1.0000
  S   S2        1.0  0.3444903346244246  0.2344960286282003  0.3437851795461029  1.0000
  O   O1        1.0  0.3664644877426326  0.7662326052231947  0.16287354644737206  1.0000
  O   O2        1.0  0.7138048734050244  0.5998025833978318  0.22958134690998122  1.0000
  O   O3        1.0  0.7396194403991103  0.8319709119241452  0.20430196123197675  1.0000
  O   O4        1.0  0.4213769723428413  0.5974688271526247  0.475843183347024  1.0000
  O   O5        1.0  0.6414611643122043  0.06856240698834881  0.868607566866558  1.0000
  O   O6        1.0  0.5451448638923466  0.3848234452307224  0.20331931253895164  1.0000
  O   O7        1.0  0.26712721190415323  0.6578350438794587  0.9536637892015278  1.0000
  O   O8        1.0  0.38914094283245504  0.5588297336216783  0.17761047941166908  1.0000
  O   O9        1.0  0.3285687295719981  0.19475337769836187  0.47678398291463964  1.0000
  O   O10       1.0  0.9124973495490849  0.8587781358510256  0.45576385117601603  1.0000
data_image92
_chemical_formula_structural       Li4H4S2O10
_chemical_formula_sum              "Li4 H4 S2 O10"
_cell_length_a       4.90399
_cell_length_b       5.555894000000001
_cell_length_c       8.269645510084757
_cell_angle_alpha    72.8917451750904
_cell_angle_beta     90.0
_cell_angle_gamma    90.0

_space_group_name_H-M_alt    "P 1"
_space_group_IT_number       1

loop_
  _space_group_symop_operation_xyz
  'x, y, z'

loop_
  _atom_site_type_symbol
  _atom_site_label
  _atom_site_symmetry_multiplicity
  _atom_site_fract_x
  _atom_site_fract_y
  _atom_site_fract_z
  _atom_site_occupancy
  Li  Li1       1.0  0.8333567576482892  0.35897371545434  0.6341353957541287  1.0000
  Li  Li2       1.0  0.6479757018387318  0.7890631551854312  0.30248315422795713  1.0000
  Li  Li3       1.0  0.12585647637024522  0.027875952539034188  0.4049835305195302  1.0000
  Li  Li4       1.0  0.8598781172186136  0.350738532259129  0.956980385701172  1.0000
  H   H1        1.0  0.7116413563489914  0.63501354935579  0.8623500876128674  1.0000
  H   H2        1.0  0.9518602332100272  0.026471621822565794  0.06685964594362304  1.0000
  H   H3        1.0  0.7240240992978215  0.2152565624564886  0.6895472223986872  1.0000
  H   H4        1.0  0.4318419913761318  0.20292410234105773  0.7660032497951761  1.0000
  S   S1        1.0  0.08600950799882412  0.28150198701769114  0.6586772955488414  1.0000
  S   S2        1.0  0.9929558853618801  0.23291702917777002  0.9568664273247123  1.0000
  O   O1        1.0  0.5549828261137009  0.038425483005994465  0.8691916696261615  1.0000
  O   O2        1.0  0.2557423491962254  0.03807035120553337  0.5938946268870495  1.0000
  O   O3        1.0  0.19017708394676447  0.11918704769050237  0.6075408118776977  1.0000
  O   O4        1.0  0.0840714918449521  0.16910918313078582  0.27611637208610773  1.0000
  O   O5        1.0  0.14690969622461125  0.1542708911583759  0.5205945769557729  1.0000
  O   O6        1.0  0.04844163078814745  0.9881459553726017  0.2298670681193471  1.0000
  O   O7        1.0  0.2765122294658795  0.8102057702781167  0.7048216440016404  1.0000
  O   O8        1.0  0.5557298241183162  0.20544428139692172  0.9942739706020802  1.0000
  O   O9        1.0  0.10868557565845549  0.4707039361819625  0.5829842730017845  1.0000
  O   O10       1.0  0.1358729600906372  0.11627356708049774  0.9395453811157495  1.0000
data_image93
_chemical_formula_structural       Li4H4S2O10
_chemical_formula_sum              "Li4 H4 S2 O10"
_cell_length_a       4.90399
_cell_length_b       5.555894000000001
_cell_length_c       8.269645510084757
_cell_angle_alpha    72.8917451750904
_cell_angle_beta     90.0
_cell_angle_gamma    90.0

_space_group_name_H-M_alt    "P 1"
_space_group_IT_number       1

loop_
  _space_group_symop_operation_xyz
  'x, y, z'

loop_
  _atom_site_type_symbol
  _atom_site_label
  _atom_site_symmetry_multiplicity
  _atom_site_fract_x
  _atom_site_fract_y
  _atom_site_fract_z
  _atom_site_occupancy
  Li  Li1       1.0  0.940642811357975  0.8600772044155747  0.2703042330686003  1.0000
  Li  Li2       1.0  0.4851528173312545  0.45721458294428885  0.5798124892171472  1.0000
  Li  Li3       1.0  0.5654565958539024  0.11239274893887341  0.6461988501250744  1.0000
  Li  Li4       1.0  0.5331875933334231  0.8759345122380182  0.8660487874876708  1.0000
  H   H1        1.0  0.08592478325590491  0.7077104514464736  0.24870315473526716  1.0000
  H   H2        1.0  0.9336099210195243  0.23863787669688463  0.34252261312212795  1.0000
  H   H3        1.0  0.07237135153263807  0.7878818344324827  0.9154444166342728  1.0000
  H   H4        1.0  0.49212686717510223  0.358372290735133  0.9672330442117527  1.0000
  S   S1        1.0  0.8757403210038319  0.22734003025107086  0.4522780590923503  1.0000
  S   S2        1.0  0.7062446236377582  0.6029283283860423  0.10097309947013855  1.0000
  O   O1        1.0  0.6970515705179423  0.5429031057210523  0.13143811759073287  1.0000
  O   O2        1.0  0.6249916909728199  0.12683919319533743  0.09599236707435921  1.0000
  O   O3        1.0  0.48082003463059664  0.7574273248465033  0.44154366361908615  1.0000
  O   O4        1.0  0.4429158214479685  0.9205470897722989  0.16780321364058182  1.0000
  O   O5        1.0  0.5461884746036958  0.6430964484461583  0.29939344205195084  1.0000
  O   O6        1.0  0.7697354764677584  0.7422910123132169  0.9866730086505413  1.0000
  O   O7        1.0  0.7105839601717889  0.79892966063926  0.15149257390294224  1.0000
  O   O8        1.0  0.8108781268820167  0.4652347061200999  0.5491114744218066  1.0000
  O   O9        1.0  0.6755923861637712  0.5064680017530918  0.7235794375301339  1.0000
  O   O10       1.0  0.7072343910112977  0.03672675043344498  0.1958502916386351  1.0000
data_image94
_chemical_formula_structural       Li4H4S2O10
_chemical_formula_sum              "Li4 H4 S2 O10"
_cell_length_a       4.90399
_cell_length_b       5.555894000000001
_cell_length_c       8.269645510084757
_cell_angle_alpha    72.8917451750904
_cell_angle_beta     90.0
_cell_angle_gamma    90.0

_space_group_name_H-M_alt    "P 1"
_space_group_IT_number       1

loop_
  _space_group_symop_operation_xyz
  'x, y, z'

loop_
  _atom_site_type_symbol
  _atom_site_label
  _atom_site_symmetry_multiplicity
  _atom_site_fract_x
  _atom_site_fract_y
  _atom_site_fract_z
  _atom_site_occupancy
  Li  Li1       1.0  0.721669543068856  0.025124403182417154  0.8254053314449266  1.0000
  Li  Li2       1.0  0.1077897734940052  0.6247258479706943  0.9653984629549086  1.0000
  Li  Li3       1.0  0.5230705417925492  0.708470961661078  0.6265028738416731  1.0000
  Li  Li4       1.0  0.24524662550538778  0.22749438369646668  0.06010023911949247  1.0000
  H   H1        1.0  0.7451130967820063  0.528601189609617  0.8551568607799709  1.0000
  H   H2        1.0  0.49256334360688925  0.9178122649900615  0.7396960247424431  1.0000
  H   H3        1.0  0.9320013681426644  0.46818604320287704  0.8807821154478006  1.0000
  H   H4        1.0  0.8706933539360762  0.49893699504900724  0.3990077159833163  1.0000
  S   S1        1.0  0.34640439791837707  0.5696861860342324  0.5781094613485038  1.0000
  S   S2        1.0  0.5059489891864359  0.06618504168000072  0.31545770703814924  1.0000
  O   O1        1.0  0.9881821910385042  0.9131862478971016  0.7259880175988656  1.0000
  O   O2        1.0  0.868617003550753  0.24853565316880122  0.889005656237714  1.0000
  O   O3        1.0  0.6908992254175246  0.5936457942589186  0.6863286371808499  1.0000
  O   O4        1.0  0.43365724745672196  0.562736606458202  0.07385317829903215  1.0000
  O   O5        1.0  0.38798291626153514  0.19246944633778185  0.6002281131804921  1.0000
  O   O6        1.0  0.11025899881497025  0.8171833390370011  0.5997131667099893  1.0000
  O   O7        1.0  0.44369507615920156  0.9705667113303207  0.7673640922876075  1.0000
  O   O8        1.0  0.679300093324855  0.7031799319083802  0.01327649166341871  1.0000
  O   O9        1.0  0.5963722616434097  0.20221108756959438  0.8080605748691596  1.0000
  O   O10       1.0  0.29854396218433976  0.14876787597313523  0.7444059540284798  1.0000
data_image95
_chemical_formula_structural       Li4H4S2O10
_chemical_formula_sum              "Li4 H4 S2 O10"
_cell_length_a       4.90399
_cell_length_b       5.555894000000001
_cell_length_c       8.269645510084757
_cell_angle_alpha    72.8917451750904
_cell_angle_beta     90.0
_cell_angle_gamma    90.0

_space_group_name_H-M_alt    "P 1"
_space_group_IT_number       1

loop_
  _space_group_symop_operation_xyz
  'x, y, z'

loop_
  _atom_site_type_symbol
  _atom_site_label
  _atom_site_symmetry_multiplicity
  _atom_site_fract_x
  _atom_site_fract_y
  _atom_site_fract_z
  _atom_site_occupancy
  Li  Li1       1.0  0.6759716526139528  0.804718408966437  0.20639294374268502  1.0000
  Li  Li2       1.0  0.24877780862152576  0.4816569830290973  0.3722059475257993  1.0000
  Li  Li3       1.0  0.5967933275969699  0.7187158449669369  0.7023226104211062  1.0000
  Li  Li4       1.0  0.48916210792958736  0.3360823612893  0.6418136631837115  1.0000
  H   H1        1.0  0.11134229484014213  0.6808471612166613  0.8811734989285469  1.0000
  H   H2        1.0  0.4003193355165422  0.34510181844234467  0.3219371138839051  1.0000
  H   H3        1.0  0.23899229243397713  0.37625172175467014  0.41410539927892387  1.0000
  H   H4        1.0  0.792563562747091  0.03694130142685026  0.6304285183432512  1.0000
  S   S1        1.0  0.0796110977535136  0.5898354034870863  0.3299038406694308  1.0000
  S   S2        1.0  0.5800315460655838  0.3475152474711649  0.5791158061474562  1.0000
  O   O1        1.0  0.6955787253100425  0.845090021379292  0.15396132838213816  1.0000
  O   O2        1.0  0.48687154008075595  0.6641212233516853  0.5311423495295458  1.0000
  O   O3        1.0  0.9250689139589667  0.005680109316017479  0.07845803629606962  1.0000
  O   O4        1.0  0.8523406664608046  0.7172345377039164  0.21766873257001862  1.0000
  O   O5        1.0  0.4195409755629953  0.3088395139784552  0.4991503602359444  1.0000
  O   O6        1.0  0.3622118104249239  0.030273666139692068  0.013210087548941374  1.0000
  O   O7        1.0  0.9962671634275466  0.27613550156820565  0.8287667949916795  1.0000
  O   O8        1.0  0.48546220757998526  0.5298061096400488  0.34924880182370543  1.0000
  O   O9        1.0  0.7418234727811068  0.09685285878367722  0.009523707092739642  1.0000
  O   O10       1.0  0.21461736038327217  0.3168017938733101  0.5370313618914224  1.0000
data_image96
_chemical_formula_structural       Li4H4S2O10
_chemical_formula_sum              "Li4 H4 S2 O10"
_cell_length_a       4.90399
_cell_length_b       5.555894000000001
_cell_length_c       8.269645510084757
_cell_angle_alpha    72.8917451750904
_cell_angle_beta     90.0
_cell_angle_gamma    90.0

_space_group_name_H-M_alt    "P 1"
_space_group_IT_number       1

loop_
  _space_group_symop_operation_xyz
  'x, y, z'

loop_
  _atom_site_type_symbol
  _atom_site_label
  _atom_site_symmetry_multiplicity
  _atom_site_fract_x
  _atom_site_fract_y
  _atom_site_fract_z
  _atom_site_occupancy
  Li  Li1       1.0  0.9342348016798496  0.971183346118778  0.6767515392275527  1.0000
  Li  Li2       1.0  0.12192883621901274  0.7196413157507777  0.5358651683200151  1.0000
  Li  Li3       1.0  0.6485951342619956  0.8700315998285078  0.3413064948981628  1.0000
  Li  Li4       1.0  0.43662827275693417  0.3588238481897861  0.9603240801952779  1.0000
  H   H1        1.0  0.6093673873692751  0.7683516084216535  0.7742457711137831  1.0000
  H   H2        1.0  0.24970817379653454  0.6497851307503879  0.14068674453301355  1.0000
  H   H3        1.0  0.6366367405280471  0.39547052793204784  0.27113932388601825  1.0000
  H   H4        1.0  0.0809500734321773  0.5561441226163879  0.16677373979473487  1.0000
  S   S1        1.0  0.5559166687889956  0.6940137261990458  0.6521529661258683  1.0000
  S   S2        1.0  0.7358681425685063  0.40576240443624556  0.9574217186309397  1.0000
  O   O1        1.0  0.7881971732713282  0.5937849781184923  0.28521229850593954  1.0000
  O   O2        1.0  0.8493680045939982  0.6488972253573593  0.8784287992166355  1.0000
  O   O3        1.0  0.4835897469893098  0.1692298693669727  0.8585460607428104  1.0000
  O   O4        1.0  0.7886370246997103  0.4912649574689567  0.1649075371096842  1.0000
  O   O5        1.0  0.15723984024953097  0.8988408328732476  0.9060906015802175  1.0000
  O   O6        1.0  0.3160855430178344  0.10828586667776108  0.49669742630794644  1.0000
  O   O7        1.0  0.05777058855164796  0.22422516587539576  0.7259254876989871  1.0000
  O   O8        1.0  0.9088725075125694  0.23970716845360585  0.8867185175186023  1.0000
  O   O9        1.0  0.9885189121123403  0.9350323004182428  0.885960914689349  1.0000
  O   O10       1.0  0.4898420525714755  0.9729858147911727  0.8827014132984914  1.0000
data_image97
_chemical_formula_structural       Li4H4S2O10
_chemical_formula_sum              "Li4 H4 S2 O10"
_cell_length_a       4.90399
_cell_length_b       5.555894000000001
_cell_length_c       8.269645510084757
_cell_angle_alpha    72.8917451750904
_cell_angle_beta     90.0
_cell_angle_gamma    90.0

_space_group_name_H-M_alt    "P 1"
_space_group_IT_number       1

loop_
  _space_group_symop_operation_xyz
  'x, y, z'

loop_
  _atom_site_type_symbol
  _atom_site_label
  _atom_site_symmetry_multiplicity
  _atom_site_fract_x
  _atom_site_fract_y
  _atom_site_fract_z
  _atom_site_occupancy
  Li  Li1       1.0  0.7011490685399622  0.23681515897624195  0.5462336245691404  1.0000
  Li  Li2       1.0  0.9577909801155329  0.7244070277083665  0.7692609899677336  1.0000
  Li  Li3       1.0  0.016946021583862603  0.7080530289676972  0.947200991329737  1.0000
  Li  Li4       1.0  0.44185183802619576  0.20369138405658305  0.9568182723596692  1.0000
  H   H1        1.0  0.4536234906408936  0.9139374441001564  0.9662513062357903  1.0000
  H   H2        1.0  0.0694399275816977  0.4538364289328456  0.23945840244414285  1.0000
  H   H3        1.0  0.28705438412725925  0.02748075220733881  0.5259538742247969  1.0000
  H   H4        1.0  0.3812451087869704  0.579973608138971  0.6966221523471177  1.0000
  S   S1        1.0  0.7234987783012912  0.5156718762591481  0.627808571443893  1.0000
  S   S2        1.0  0.036322867148555815  0.45839730981970206  0.7062731448095292  1.0000
  O   O1        1.0  0.8421508937608451  0.8200410559365992  0.21302062705217395  1.0000
  O   O2        1.0  0.9932745432015508  0.7585978529823478  0.39035522151971236  1.0000
  O   O3        1.0  0.05005941353738308  0.7479668728046818  0.45789945870637894  1.0000
  O   O4        1.0  0.9679642035625875  0.13251013541594148  0.5144109519314952  1.0000
  O   O5        1.0  0.5422501987486612  0.19856325519504026  0.8864501054631546  1.0000
  O   O6        1.0  0.6609233571216464  0.31444641249254346  0.8143642209470272  1.0000
  O   O7        1.0  0.5568595348158851  0.6144500389927998  0.09726853878237307  1.0000
  O   O8        1.0  0.17323834775015712  0.39776365089346655  0.3043178035877645  1.0000
  O   O9        1.0  0.9238901394419372  0.3963646406773478  0.9761626434628852  1.0000
  O   O10       1.0  0.4325585141777992  0.2853421261534095  0.03252275154227391  1.0000
data_image98
_chemical_formula_structural       Li4H4S2O10
_chemical_formula_sum              "Li4 H4 S2 O10"
_cell_length_a       4.90399
_cell_length_b       5.555894000000001
_cell_length_c       8.269645510084757
_cell_angle_alpha    72.8917451750904
_cell_angle_beta     90.0
_cell_angle_gamma    90.0

_space_group_name_H-M_alt    "P 1"
_space_group_IT_number       1

loop_
  _space_group_symop_operation_xyz
  'x, y, z'

loop_
  _atom_site_type_symbol
  _atom_site_label
  _atom_site_symmetry_multiplicity
  _atom_site_fract_x
  _atom_site_fract_y
  _atom_site_fract_z
  _atom_site_occupancy
  Li  Li1       1.0  0.2362073336262256  0.7386518636485562  0.5385707394452766  1.0000
  Li  Li2       1.0  0.0230549443513155  0.937661100178957  0.23812980845104903  1.0000
  Li  Li3       1.0  0.7289703052956611  0.4684666756656952  0.4678405253216624  1.0000
  Li  Li4       1.0  0.021184320095926523  0.8434479234274477  0.9035702747059986  1.0000
  H   H1        1.0  0.661289035808295  0.006084854016080499  0.8664606213569641  1.0000
  H   H2        1.0  0.5099895866587758  0.017950420267879963  0.3440840094117448  1.0000
  H   H3        1.0  0.7388118384405971  0.1457228222861886  0.26151682814816013  1.0000
  H   H4        1.0  0.7098980154842138  0.45027877180837095  0.7838340753223747  1.0000
  S   S1        1.0  0.7800418040715158  0.3395724162692204  0.455375810735859  1.0000
  S   S2        1.0  0.15923160430975258  0.8948101702844724  0.8356028033886105  1.0000
  O   O1        1.0  0.5792945476714522  0.9141241855395492  0.9420171743404353  1.0000
  O   O2        1.0  0.9754023277200758  0.45527964719804004  0.23589546512812376  1.0000
  O   O3        1.0  0.7006326518021524  0.93042279065412  0.014325774740427732  1.0000
  O   O4        1.0  0.5913967544911429  0.2276891707442701  0.9994562782812864  1.0000
  O   O5        1.0  0.822603956767125  0.30409831210272387  0.7437080310191959  1.0000
  O   O6        1.0  0.07830877276137471  0.4845287911593914  0.3365436331368983  1.0000
  O   O7        1.0  0.5120815087575465  0.6810916622343939  0.6436352726304904  1.0000
  O   O8        1.0  0.6907473492901772  0.5984988268755842  0.6916219149716198  1.0000
  O   O9        1.0  0.39751213719137013  0.5990427152719349  0.23132472700672224  1.0000
  O   O10       1.0  0.8505968847312033  0.6474875030107796  0.08083523815730587  1.0000
data_image99
_chemical_formula_structural       Li4H4S2O10
_chemical_formula_sum              "Li4 H4 S2 O10"
_cell_length_a       4.90399
_cell_length_b       5.555894000000001
_cell_length_c       8.269645510084757
_cell_angle_alpha    72.8917451750904
_cell_angle_beta     90.0
_cell_angle_gamma    90.0

_space_group_name_H-M_alt    "P 1"
_space_group_IT_number       1

loop_
  _space_group_symop_operation_xyz
  'x, y, z'

loop_
  _atom_site_type_symbol
  _atom_site_label
  _atom_site_symmetry_multiplicity
  _atom_site_fract_x
  _atom_site_fract_y
  _atom_site_fract_z
  _atom_site_occupancy
  Li  Li1       1.0  0.2635197888594121  0.9311136119067669  0.33660194580443203  1.0000
  Li  Li2       1.0  0.1486030276864767  0.7646651191171259  0.35588379157707095  1.0000
  Li  Li3       1.0  0.25020238978322595  0.8631664935383014  0.6442604364128783  1.0000
  Li  Li4       1.0  0.2171012219041586  0.5048260351177305  0.7270049101207405  1.0000
  H   H1        1.0  0.9052758514881134  0.8871044302359223  0.9977426817640662  1.0000
  H   H2        1.0  0.8627076093107462  0.12033344432711601  0.13889932440361008  1.0000
  H   H3        1.0  0.6190324695780873  0.40420489851385355  0.13114841631613672  1.0000
  H   H4        1.0  0.23190676607191563  0.9834610777907073  0.7524130489327945  1.0000
  S   S1        1.0  0.9413827247335576  0.6457566915778443  0.486806673463434  1.0000
  S   S2        1.0  0.4049366378458217  0.4234225404798053  0.5358197782188654  1.0000
  O   O1        1.0  0.468396749580279  0.1262195098970551  0.3852357871073764  1.0000
  O   O2        1.0  0.9499263858888298  0.819880474708043  0.7454505866626278  1.0000
  O   O3        1.0  0.9008253659121692  0.24670468588010408  0.560409263940528  1.0000
  O   O4        1.0  0.15895449160598218  0.8035385794937611  0.4011358395218849  1.0000
  O   O5        1.0  0.2375279549160041  0.41306437127059326  0.26892620930448174  1.0000
  O   O6        1.0  0.0760016767308116  0.13137445785105228  0.009717970620840788  1.0000
  O   O7        1.0  0.857694209786132  0.6436408591107465  0.6037998218089342  1.0000
  O   O8        1.0  0.6911824445705861  0.23421293804130983  0.31648816214874387  1.0000
  O   O9        1.0  0.8041313274297863  0.253665128024295  0.6052162416162901  1.0000
  O   O10       1.0  0.15316065773367882  0.6746711283922195  0.19554234034148976  1.0000
data_image100
_chemical_formula_structural       Li4H4S2O10
_chemical_formula_sum              "Li4 H4 S2 O10"
_cell_length_a       4.90399
_cell_length_b       5.555894000000001
_cell_length_c       8.269645510084757
_cell_angle_alpha    72.8917451750904
_cell_angle_beta     90.0
_cell_angle_gamma    90.0

_space_group_name_H-M_alt    "P 1"
_space_group_IT_number       1

loop_
  _space_group_symop_operation_xyz
  'x, y, z'

loop_
  _atom_site_type_symbol
  _atom_site_label
  _atom_site_symmetry_multiplicity
  _atom_site_fract_x
  _atom_site_fract_y
  _atom_site_fract_z
  _atom_site_occupancy
  Li  Li1       1.0  0.20619669510051608  0.011044568615034223  0.932841585134156  1.0000
  Li  Li2       1.0  0.3105446519330144  0.5531236939132214  0.7015116092516109  1.0000
  Li  Li3       1.0  0.9537765700370073  0.7013478748267516  0.0625082649057731  1.0000
  Li  Li4       1.0  0.946217552293092  0.6542056966573  0.9123907425673679  1.0000
  H   H1        1.0  0.9411748563870788  0.08104775263927877  0.7511317636817694  1.0000
  H   H2        1.0  0.34489256190136075  0.9894545287825167  0.7374391272314824  1.0000
  H   H3        1.0  0.4389313654974103  0.08506445493549109  0.9156408888520673  1.0000
  H   H4        1.0  0.1406534039415419  0.9013708173297346  0.30986423161812127  1.0000
  S   S1        1.0  0.5336967577750329  0.6566175018670037  0.14245372428558767  1.0000
  S   S2        1.0  0.4122596882516518  0.8094607921084389  0.6593477232381701  1.0000
  O   O1        1.0  0.443275413941592  0.8435970472928602  0.37526086476282217  1.0000
  O   O2        1.0  0.9330829007085413  0.33388938615098596  0.6533941870438866  1.0000
  O   O3        1.0  0.35789991449564695  0.4294200351869222  0.5310936577152461  1.0000
  O   O4        1.0  0.8004261613823473  0.3040443148929626  0.21414574835216627  1.0000
  O   O5        1.0  0.9340253143454902  0.7467836237046868  0.3291095295571722  1.0000
  O   O6        1.0  0.7516377358697355  0.5747277867048979  0.6195080652832985  1.0000
  O   O7        1.0  0.12772318813949823  0.22431739684543572  0.43909305264241993  1.0000
  O   O8        1.0  0.31516884127631783  0.41126028065627906  0.4870971384225413  1.0000
  O   O9        1.0  0.3119881509337574  0.7030149067286402  0.6609674275678117  1.0000
  O   O10       1.0  0.606910050380975  0.4518607622012496  0.7601288913865574  1.0000
data_image101
_chemical_formula_structural       Li4H4S2O10
_chemical_formula_sum              "Li4 H4 S2 O10"
_cell_length_a       4.90399
_cell_length_b       5.555894000000001
_cell_length_c       8.269645510084757
_cell_angle_alpha    72.8917451750904
_cell_angle_beta     90.0
_cell_angle_gamma    90.0

_space_group_name_H-M_alt    "P 1"
_space_group_IT_number       1

loop_
  _space_group_symop_operation_xyz
  'x, y, z'

loop_
  _atom_site_type_symbol
  _atom_site_label
  _atom_site_symmetry_multiplicity
  _atom_site_fract_x
  _atom_site_fract_y
  _atom_site_fract_z
  _atom_site_occupancy
  Li  Li1       1.0  0.37787839211523533  0.5332088602008298  0.2375861331820488  1.0000
  Li  Li2       1.0  0.09237477649003267  0.9309018817730248  0.34915754990652204  1.0000
  Li  Li3       1.0  0.45815805858001113  0.7234736788086593  0.5749226731713861  1.0000
  Li  Li4       1.0  0.2715686457231641  0.4287704622838646  0.3100512344390154  1.0000
  H   H1        1.0  0.21336963144131005  0.7265708467457443  0.7128964425064623  1.0000
  H   H2        1.0  0.22972867963835597  0.510728438384831  0.9459735198761337  1.0000
  H   H3        1.0  0.008829450234770775  0.38575512170791626  0.6442324476083741  1.0000
  H   H4        1.0  0.5735705364495516  0.13545232557225972  0.24540656572207808  1.0000
  S   S1        1.0  0.5321403917623684  0.26079114922322333  0.49027934548212215  1.0000
  S   S2        1.0  0.16686716116964817  0.33735094778239727  0.7802509684115648  1.0000
  O   O1        1.0  0.0025698463432490826  0.3072531752695795  0.9158594337059185  1.0000
  O   O2        1.0  0.5295573389157653  0.39864220745221246  0.8621440486749634  1.0000
  O   O3        1.0  0.9199773520231247  0.28492118130088784  0.9215091411024332  1.0000
  O   O4        1.0  0.8443237687461078  0.08774181874468923  0.6720998861710541  1.0000
  O   O5        1.0  0.44468047536793165  0.8324851869256236  0.521240969072096  1.0000
  O   O6        1.0  0.9272818248718977  0.6295784525573254  0.488358520437032  1.0000
  O   O7        1.0  0.5431517481338233  0.2076428911241237  0.3607892580330372  1.0000
  O   O8        1.0  0.15666306694038212  0.34548446093685925  0.6602916764095426  1.0000
  O   O9        1.0  0.2934508486650884  0.2528664730489254  0.7309132624650374  1.0000
  O   O10       1.0  0.45855320943519473  0.12662655813619494  0.23409740632632747  1.0000
data_image102
_chemical_formula_structural       Li4H4S2O10
_chemical_formula_sum              "Li4 H4 S2 O10"
_cell_length_a       4.90399
_cell_length_b       5.555894000000001
_cell_length_c       8.269645510084757
_cell_angle_alpha    72.8917451750904
_cell_angle_beta     90.0
_cell_angle_gamma    90.0

_space_group_name_H-M_alt    "P 1"
_space_group_IT_number       1

loop_
  _space_group_symop_operation_xyz
  'x, y, z'

loop_
  _atom_site_type_symbol
  _atom_site_label
  _atom_site_symmetry_multiplicity
  _atom_site_fract_x
  _atom_site_fract_y
  _atom_site_fract_z
  _atom_site_occupancy
  Li  Li1       1.0  0.9090227626729757  0.6280508581548929  0.397819644655101  1.0000
  Li  Li2       1.0  0.37948240246623755  0.6588833422865719  0.8038775597233325  1.0000
  Li  Li3       1.0  0.40864488086663187  0.3305571071105078  0.8028672658838332  1.0000
  Li  Li4       1.0  0.26460568793118  0.9858275380684063  0.1872097470331937  1.0000
  H   H1        1.0  0.10965988575480878  0.793634426780045  0.002164737321436405  1.0000
  H   H2        1.0  0.06270223343744874  0.5203195926733315  0.8284228265401907  1.0000
  H   H3        1.0  0.45976300444453955  0.07606750167906284  0.4324491174193099  1.0000
  H   H4        1.0  0.71260632481426  0.6914080306887627  0.847311140212696  1.0000
  S   S1        1.0  0.6660462818108499  0.8968499335460365  0.1515978020033799  1.0000
  S   S2        1.0  0.40180817572399974  0.7406965665286407  0.11872270843014121  1.0000
  O   O1        1.0  0.6891937509644777  0.8804753294098191  0.8638424896344077  1.0000
  O   O2        1.0  0.4079064894467592  0.34742517991981003  0.8128606147365645  1.0000
  O   O3        1.0  0.7849715943448246  0.7031753827322973  0.9837896244134754  1.0000
  O   O4        1.0  0.7263174208346754  0.9430325627326965  0.12096127029508352  1.0000
  O   O5        1.0  0.31866785476449877  0.4711937515530735  0.422834480938036  1.0000
  O   O6        1.0  0.07142288377508521  0.5204545562155545  0.14189454447478056  1.0000
  O   O7        1.0  0.3935895444592461  0.8907775721454527  0.15359866141807288  1.0000
  O   O8        1.0  0.5826593111269176  0.5884668148646597  0.12305701535660774  1.0000
  O   O9        1.0  0.252729338593781  0.13567834394052625  0.7847537730413023  1.0000
  O   O10       1.0  0.7055066586472094  0.40515694255009294  0.49752336999517865  1.0000
data_image103
_chemical_formula_structural       Li4H4S2O10
_chemical_formula_sum              "Li4 H4 S2 O10"
_cell_length_a       4.90399
_cell_length_b       5.555894000000001
_cell_length_c       8.269645510084757
_cell_angle_alpha    72.8917451750904
_cell_angle_beta     90.0
_cell_angle_gamma    90.0

_space_group_name_H-M_alt    "P 1"
_space_group_IT_number       1

loop_
  _space_group_symop_operation_xyz
  'x, y, z'

loop_
  _atom_site_type_symbol
  _atom_site_label
  _atom_site_symmetry_multiplicity
  _atom_site_fract_x
  _atom_site_fract_y
  _atom_site_fract_z
  _atom_site_occupancy
  Li  Li1       1.0  0.8081489349715412  0.6189983430085704  0.34191904659383  1.0000
  Li  Li2       1.0  0.8921239152550697  0.2853340257424861  0.4286423336016014  1.0000
  Li  Li3       1.0  0.11899963929317892  0.13293575611896813  0.7957316739484668  1.0000
  Li  Li4       1.0  0.8167991871014237  0.5744154617423192  0.4611313948407769  1.0000
  H   H1        1.0  0.8773224577307701  0.11993323243223131  0.287389962002635  1.0000
  H   H2        1.0  0.17452114867046475  0.18886657990515232  0.23248874192358926  1.0000
  H   H3        1.0  0.09210200980305672  0.0788095835596323  0.8924380473326892  1.0000
  H   H4        1.0  0.6073038671165705  0.046715144300833344  0.7962845783913508  1.0000
  S   S1        1.0  0.7120689728762954  0.6754064710112289  0.45743617590051144  1.0000
  S   S2        1.0  0.3418962601572275  0.4774306183680892  0.02104648621752858  1.0000
  O   O1        1.0  0.6038491043727845  0.03493292789789848  0.5652830593462568  1.0000
  O   O2        1.0  0.24928843113593757  0.7542619856976671  0.6515840961365029  1.0000
  O   O3        1.0  0.9784110933542252  0.0752903759421315  0.46841354481875896  1.0000
  O   O4        1.0  0.21847967070061713  0.9213552684523165  0.8124956224346533  1.0000
  O   O5        1.0  0.4263923545659054  0.09145900316070765  0.9835851116222329  1.0000
  O   O6        1.0  0.9629262438975275  0.4662217451259494  0.07555169146507978  1.0000
  O   O7        1.0  0.7167125015985221  0.796474189060973  0.262844416545704  1.0000
  O   O8        1.0  0.2580547989346087  0.9745819611125626  0.609983274131082  1.0000
  O   O9        1.0  0.2656686098780483  0.5834984905086458  0.2312959196860902  1.0000
  O   O10       1.0  0.3499761549755931  0.26524528162553906  0.13160518050426617  1.0000
data_image104
_chemical_formula_structural       Li4H4S2O10
_chemical_formula_sum              "Li4 H4 S2 O10"
_cell_length_a       4.90399
_cell_length_b       5.555894000000001
_cell_length_c       8.269645510084757
_cell_angle_alpha    72.8917451750904
_cell_angle_beta     90.0
_cell_angle_gamma    90.0

_space_group_name_H-M_alt    "P 1"
_space_group_IT_number       1

loop_
  _space_group_symop_operation_xyz
  'x, y, z'

loop_
  _atom_site_type_symbol
  _atom_site_label
  _atom_site_symmetry_multiplicity
  _atom_site_fract_x
  _atom_site_fract_y
  _atom_site_fract_z
  _atom_site_occupancy
  Li  Li1       1.0  0.4708681325428188  0.9541067440295592  0.7259213360957801  1.0000
  Li  Li2       1.0  0.4104793583974242  0.6881149974651635  0.5183356833877042  1.0000
  Li  Li3       1.0  0.29964542284142226  0.25192291708663106  0.1802255348302424  1.0000
  Li  Li4       1.0  0.18188072461634874  0.4329011468216777  0.4415035161655396  1.0000
  H   H1        1.0  0.8254443968908163  0.7882747570984066  0.8359346799552441  1.0000
  H   H2        1.0  0.45619086595252156  0.3351893979124725  0.9765630246838555  1.0000
  H   H3        1.0  0.495546605437994  0.10894134547561407  0.1531775682233274  1.0000
  H   H4        1.0  0.8923425646498799  0.9827566286548972  0.714944928069599  1.0000
  S   S1        1.0  0.7891626774217002  0.535335187567398  0.8584138505393639  1.0000
  S   S2        1.0  0.24236502358689904  0.9704251794610173  0.13653881894424558  1.0000
  O   O1        1.0  0.9056927931960672  0.23755220364546403  0.8858634762000293  1.0000
  O   O2        1.0  0.16958349361084402  0.8634899188764393  0.9532925613457337  1.0000
  O   O3        1.0  0.221721432171762  0.6104615618969547  0.995894179912284  1.0000
  O   O4        1.0  0.6864828609395772  0.9752794730011374  0.3054705332615413  1.0000
  O   O5        1.0  0.6607957066589734  0.9986694506951608  0.3652953135315329  1.0000
  O   O6        1.0  0.32095931004732847  0.9582347697578371  0.5084764820057899  1.0000
  O   O7        1.0  0.7659183457726613  0.000860531406942755  0.4927851614775136  1.0000
  O   O8        1.0  0.6172817794140428  0.13509406675439095  0.007696378859691322  1.0000
  O   O9        1.0  0.6846472404431552  0.5733954024035484  0.14539161950233392  1.0000
  O   O10       1.0  0.8015289353206754  0.45398689107969403  0.5088470018527005  1.0000
data_image105
_chemical_formula_structural       Li4H4S2O10
_chemical_formula_sum              "Li4 H4 S2 O10"
_cell_length_a       4.90399
_cell_length_b       5.555894000000001
_cell_length_c       8.269645510084757
_cell_angle_alpha    72.8917451750904
_cell_angle_beta     90.0
_cell_angle_gamma    90.0

_space_group_name_H-M_alt    "P 1"
_space_group_IT_number       1

loop_
  _space_group_symop_operation_xyz
  'x, y, z'

loop_
  _atom_site_type_symbol
  _atom_site_label
  _atom_site_symmetry_multiplicity
  _atom_site_fract_x
  _atom_site_fract_y
  _atom_site_fract_z
  _atom_site_occupancy
  Li  Li1       1.0  0.08880803873762488  0.4151812276104465  0.9630481929052621  1.0000
  Li  Li2       1.0  0.8693931456655264  0.9798537832684815  0.945613244897686  1.0000
  Li  Li3       1.0  0.8461982543813065  0.10716482251882553  0.4419583319686353  1.0000
  Li  Li4       1.0  0.7815922694280744  0.6987373793381266  0.991400393890217  1.0000
  H   H1        1.0  0.4594012587913312  0.47934350348077714  0.42492627538740635  1.0000
  H   H2        1.0  0.7143299314193428  0.07506875786930323  0.727592955052387  1.0000
  H   H3        1.0  0.5585859101265669  0.36597638204693794  0.5285834381356835  1.0000
  H   H4        1.0  0.2316796761006117  0.9111688141711056  0.9582383150118403  1.0000
  S   S1        1.0  0.6600751102087088  0.9704724782495759  0.12154206237755716  1.0000
  S   S2        1.0  0.3220904660411179  0.16529679601080716  0.2954782098531723  1.0000
  O   O1        1.0  0.29779785976279527  0.6570048971334472  0.1848058940959163  1.0000
  O   O2        1.0  0.20489825261756778  0.1153048934211256  0.4754573336103931  1.0000
  O   O3        1.0  0.34116405015811324  0.07363117842760403  0.6447277036495507  1.0000
  O   O4        1.0  0.10040531610138714  0.627246931893751  0.34321515925694257  1.0000
  O   O5        1.0  0.5805867003800813  0.10363824415253475  0.393753846117761  1.0000
  O   O6        1.0  0.4377012779004872  0.5829726057127118  0.013925098581239581  1.0000
  O   O7        1.0  0.02822333760559559  0.08235190395498648  0.019191867555491626  1.0000
  O   O8        1.0  0.30037230416201055  0.2840360530244652  0.2981220163637772  1.0000
  O   O9        1.0  0.9066905698273331  0.3795161114539951  0.19002811578684486  1.0000
  O   O10       1.0  0.8527297577820718  0.4822295610792935  0.01762988735572435  1.0000
data_image106
_chemical_formula_structural       Li4H4S2O10
_chemical_formula_sum              "Li4 H4 S2 O10"
_cell_length_a       4.90399
_cell_length_b       5.555894000000001
_cell_length_c       8.269645510084757
_cell_angle_alpha    72.8917451750904
_cell_angle_beta     90.0
_cell_angle_gamma    90.0

_space_group_name_H-M_alt    "P 1"
_space_group_IT_number       1

loop_
  _space_group_symop_operation_xyz
  'x, y, z'

loop_
  _atom_site_type_symbol
  _atom_site_label
  _atom_site_symmetry_multiplicity
  _atom_site_fract_x
  _atom_site_fract_y
  _atom_site_fract_z
  _atom_site_occupancy
  Li  Li1       1.0  0.2920208559371531  0.32251351000741124  0.4871677472256124  1.0000
  Li  Li2       1.0  0.2809262741357088  0.25404461030848324  0.7151782216969877  1.0000
  Li  Li3       1.0  0.21908317832276225  0.9963994685094804  0.05246929917484522  1.0000
  Li  Li4       1.0  0.4789141919463873  0.04076294763945043  0.4080934929661453  1.0000
  H   H1        1.0  0.5127168922917917  0.8998768089804798  0.4594637737609446  1.0000
  H   H2        1.0  0.04888102412223816  0.6214293395169079  0.41972812442691065  1.0000
  H   H3        1.0  0.12443673983216286  0.6755577316507697  0.4106892354320735  1.0000
  H   H4        1.0  0.8237308817915618  0.8754289471544325  0.5278174998820759  1.0000
  S   S1        1.0  0.9623165029915981  0.6040293705882505  0.279838455200661  1.0000
  S   S2        1.0  0.4936598667409271  0.5141335849184543  0.8552490500733256  1.0000
  O   O1        1.0  0.9410983991110697  0.2669026176445186  0.42108274504425935  1.0000
  O   O2        1.0  0.3047687935177237  0.19588420922809746  0.9835219394881278  1.0000
  O   O3        1.0  0.32291949773207307  0.8140586234512739  0.6909596857149154  1.0000
  O   O4        1.0  0.6405312210554257  0.08678095473442227  0.045108519960194826  1.0000
  O   O5        1.0  0.4759557654761011  0.4140254467492923  0.7468291031545959  1.0000
  O   O6        1.0  0.7658552788197994  0.92838168842718  0.5956275570206344  1.0000
  O   O7        1.0  0.4374950770288706  0.9029827920603566  0.9116635170066729  1.0000
  O   O8        1.0  0.019653440918773413  0.9816447466509999  0.6308878058334813  1.0000
  O   O9        1.0  0.8845154312439263  0.2509307339787483  0.6737435650429688  1.0000
  O   O10       1.0  0.3621615869924426  0.6485889991745353  0.7115044137462974  1.0000
data_image107
_chemical_formula_structural       Li4H4S2O10
_chemical_formula_sum              "Li4 H4 S2 O10"
_cell_length_a       4.90399
_cell_length_b       5.555894000000001
_cell_length_c       8.269645510084757
_cell_angle_alpha    72.8917451750904
_cell_angle_beta     90.0
_cell_angle_gamma    90.0

_space_group_name_H-M_alt    "P 1"
_space_group_IT_number       1

loop_
  _space_group_symop_operation_xyz
  'x, y, z'

loop_
  _atom_site_type_symbol
  _atom_site_label
  _atom_site_symmetry_multiplicity
  _atom_site_fract_x
  _atom_site_fract_y
  _atom_site_fract_z
  _atom_site_occupancy
  Li  Li1       1.0  0.8270022855140269  0.6090792981558479  0.6475438745692372  1.0000
  Li  Li2       1.0  0.19420206639915705  0.36771727818995714  0.15802734275348485  1.0000
  Li  Li3       1.0  0.215661344002001  0.38646133127622306  0.7874274728819728  1.0000
  Li  Li4       1.0  0.012364107184112072  0.7381679473910481  0.32177124032750726  1.0000
  H   H1        1.0  0.865084839751944  0.7235264191403985  0.10019813245162368  1.0000
  H   H2        1.0  0.49920792132616043  0.2846112037077546  0.44208939303644  1.0000
  H   H3        1.0  0.5889979554340243  0.4386781034991145  0.6459990243893117  1.0000
  H   H4        1.0  0.5521869827061892  0.18542638467624784  0.1397267875727266  1.0000
  S   S1        1.0  0.6344768051058054  0.7941016849363223  0.08397925621829927  1.0000
  S   S2        1.0  0.9764294240158051  0.40129008155781776  0.05253530270420015  1.0000
  O   O1        1.0  0.18579389282967895  0.4260965015273541  0.7639936690538889  1.0000
  O   O2        1.0  0.7445460732560605  0.9610196124995127  0.6533093853504397  1.0000
  O   O3        1.0  0.18631932837888598  0.5826933764910791  0.7224801247939467  1.0000
  O   O4        1.0  0.5100830075098202  0.555362407118082  0.07116825226694345  1.0000
  O   O5        1.0  0.348438422603067  0.8130296040326357  0.20065453904680908  1.0000
  O   O6        1.0  0.9250302789732814  0.7398616457358003  0.7484341517556459  1.0000
  O   O7        1.0  0.8460572399199009  0.15531668765470386  0.6655548715498298  1.0000
  O   O8        1.0  0.8660138046834618  0.91864403958607  0.5045467985328287  1.0000
  O   O9        1.0  0.7668719398789108  0.7469169253017753  0.6870640954002738  1.0000
  O   O10       1.0  0.5113263069652021  0.5398002956062555  0.8424341311038006  1.0000
data_image108
_chemical_formula_structural       Li4H4S2O10
_chemical_formula_sum              "Li4 H4 S2 O10"
_cell_length_a       4.90399
_cell_length_b       5.555894000000001
_cell_length_c       8.269645510084757
_cell_angle_alpha    72.8917451750904
_cell_angle_beta     90.0
_cell_angle_gamma    90.0

_space_group_name_H-M_alt    "P 1"
_space_group_IT_number       1

loop_
  _space_group_symop_operation_xyz
  'x, y, z'

loop_
  _atom_site_type_symbol
  _atom_site_label
  _atom_site_symmetry_multiplicity
  _atom_site_fract_x
  _atom_site_fract_y
  _atom_site_fract_z
  _atom_site_occupancy
  Li  Li1       1.0  0.538711316883564  0.08373733937332872  0.23651596368290484  1.0000
  Li  Li2       1.0  0.3071737987920642  0.1173450592905283  0.8965517228934914  1.0000
  Li  Li3       1.0  0.04047570645343512  0.19371693185530603  0.17243692092597485  1.0000
  Li  Li4       1.0  0.9749839818105102  0.8467171636293642  0.9786888441303745  1.0000
  H   H1        1.0  0.45115545531734824  0.26603145943954587  0.6285129261668772  1.0000
  H   H2        1.0  0.5114273321814835  0.2884475360624492  0.5393916851753602  1.0000
  H   H3        1.0  0.3557110782712698  0.8939308989793062  0.4745358253130689  1.0000
  H   H4        1.0  0.16016675624996424  0.9576330347917974  0.09475229476811364  1.0000
  S   S1        1.0  0.9141297487658449  0.8534070268506184  0.9665472792694345  1.0000
  S   S2        1.0  0.9355455387849361  0.318717394140549  0.21673012641258538  1.0000
  O   O1        1.0  0.8617542679421604  0.872359325963771  0.8396632792064338  1.0000
  O   O2        1.0  0.9004307771101594  0.801665724880877  0.6320206939708441  1.0000
  O   O3        1.0  0.9034182718023658  0.2570075962212286  0.46699163503944874  1.0000
  O   O4        1.0  0.48592947237193584  0.9170429863734171  0.42503377655521035  1.0000
  O   O5        1.0  0.5373526171752019  0.4941704255179502  0.8972226540208794  1.0000
  O   O6        1.0  0.9496254036203027  0.17344733932986856  0.23069645115174353  1.0000
  O   O7        1.0  0.08373982331249863  0.8701010142685845  0.5266498742857948  1.0000
  O   O8        1.0  0.6492891162633896  0.3335168053745292  0.44029224885161966  1.0000
  O   O9        1.0  0.7884913908783346  0.31058373022824526  0.8078047035960481  1.0000
  O   O10       1.0  0.03448128700256348  0.47049470944330096  0.7159580887528136  1.0000
data_image109
_chemical_formula_structural       Li4H4S2O10
_chemical_formula_sum              "Li4 H4 S2 O10"
_cell_length_a       4.90399
_cell_length_b       5.555894000000001
_cell_length_c       8.269645510084757
_cell_angle_alpha    72.8917451750904
_cell_angle_beta     90.0
_cell_angle_gamma    90.0

_space_group_name_H-M_alt    "P 1"
_space_group_IT_number       1

loop_
  _space_group_symop_operation_xyz
  'x, y, z'

loop_
  _atom_site_type_symbol
  _atom_site_label
  _atom_site_symmetry_multiplicity
  _atom_site_fract_x
  _atom_site_fract_y
  _atom_site_fract_z
  _atom_site_occupancy
  Li  Li1       1.0  0.7027983746957034  0.6940401991741965  0.2685158213134855  1.0000
  Li  Li2       1.0  0.8380875894799829  0.32862708950415254  0.985593186924234  1.0000
  Li  Li3       1.0  0.009403027943335474  0.5301310780923814  0.1425619563087821  1.0000
  Li  Li4       1.0  0.45858950167894363  0.29294633347308263  0.8791526653803885  1.0000
  H   H1        1.0  0.7787551713408902  0.4680616850964725  0.5226827911101282  1.0000
  H   H2        1.0  0.2789404741488397  0.6724515059031546  0.9065226387829171  1.0000
  H   H3        1.0  0.19997633062303066  0.5180538259446621  0.9672018416458741  1.0000
  H   H4        1.0  0.8710477729327977  0.42776763439178467  0.5086333000217564  1.0000
  S   S1        1.0  0.6038912105432246  0.2395969294011593  0.7831686526769772  1.0000
  S   S2        1.0  0.46891508740372956  0.35692763165570796  0.8562007932923734  1.0000
  O   O1        1.0  0.22335388441570103  0.9682192051550373  0.5740683683688985  1.0000
  O   O2        1.0  0.32868034904822707  0.36268570157699287  0.039002445759251714  1.0000
  O   O3        1.0  0.13439274951815605  0.6599511010717833  0.07390994438901544  1.0000
  O   O4        1.0  0.9895530490903184  0.3524368746438995  0.8353428656700999  1.0000
  O   O5        1.0  0.2535528035077732  0.7486183372093365  0.9688658711966127  1.0000
  O   O6        1.0  0.012058851309120655  0.26503565767779946  0.22730646096169949  1.0000
  O   O7        1.0  0.18914384418167174  0.958711234445218  0.0726314231287688  1.0000
  O   O8        1.0  0.1951262892689556  0.08156970962591004  0.10553023254033178  1.0000
  O   O9        1.0  0.0018290451262146235  0.8785179820843041  0.37187902207369916  1.0000
  O   O10       1.0  0.6479566576890647  0.8057631924748421  0.7788219172507524  1.0000
data_image110
_chemical_formula_structural       Li4H4S2O10
_chemical_formula_sum              "Li4 H4 S2 O10"
_cell_length_a       4.90399
_cell_length_b       5.555894000000001
_cell_length_c       8.269645510084757
_cell_angle_alpha    72.8917451750904
_cell_angle_beta     90.0
_cell_angle_gamma    90.0

_space_group_name_H-M_alt    "P 1"
_space_group_IT_number       1

loop_
  _space_group_symop_operation_xyz
  'x, y, z'

loop_
  _atom_site_type_symbol
  _atom_site_label
  _atom_site_symmetry_multiplicity
  _atom_site_fract_x
  _atom_site_fract_y
  _atom_site_fract_z
  _atom_site_occupancy
  Li  Li1       1.0  0.5908634040970355  0.9129207453406707  0.5631158258765936  1.0000
  Li  Li2       1.0  0.17675987910479307  0.9609042690135539  0.05232422146946192  1.0000
  Li  Li3       1.0  0.521666154731065  0.33684100466780365  0.6503000543452799  1.0000
  Li  Li4       1.0  0.8626336148008704  0.20986581698525697  0.42923265369609  1.0000
  H   H1        1.0  0.3367903738981113  0.6546290856786072  0.221386679681018  1.0000
  H   H2        1.0  0.7120671323500574  0.05267137801274657  0.029972314347105566  1.0000
  H   H3        1.0  0.06110973563045263  0.1996772103011608  0.6602169732796028  1.0000
  H   H4        1.0  0.7610512292012572  0.6902858228422701  0.105670974124223  1.0000
  S   S1        1.0  0.962625264597591  0.9573644559131935  0.48175003397045657  1.0000
  S   S2        1.0  0.5170745651703328  0.89449255366344  0.01902008824981749  1.0000
  O   O1        1.0  0.6532682422548532  0.9784682672761846  0.313634755439125  1.0000
  O   O2        1.0  0.3736411714926362  0.6934366595232859  0.08054690109565854  1.0000
  O   O3        1.0  0.6895897476933897  0.08509612493799068  0.22323747910559177  1.0000
  O   O4        1.0  0.2950941630406305  0.7538030649302527  0.9363597908522934  1.0000
  O   O5        1.0  0.832166478576255  0.41497070906916633  0.5112761362106539  1.0000
  O   O6        1.0  0.41789408028125763  0.6798805147409439  0.03614512016065419  1.0000
  O   O7        1.0  0.05972256395034492  0.6715415899816435  0.26810421771369874  1.0000
  O   O8        1.0  0.34183690673671663  0.5333608276414452  0.8987653154181316  1.0000
  O   O9        1.0  0.1859981280285865  0.4960739591624588  0.1513693978631636  1.0000
  O   O10       1.0  0.07473592413589358  0.21875030174851418  0.5903703223739285  1.0000
data_image111
_chemical_formula_structural       Li4H4S2O10
_chemical_formula_sum              "Li4 H4 S2 O10"
_cell_length_a       4.90399
_cell_length_b       5.555894000000001
_cell_length_c       8.269645510084757
_cell_angle_alpha    72.8917451750904
_cell_angle_beta     90.0
_cell_angle_gamma    90.0

_space_group_name_H-M_alt    "P 1"
_space_group_IT_number       1

loop_
  _space_group_symop_operation_xyz
  'x, y, z'

loop_
  _atom_site_type_symbol
  _atom_site_label
  _atom_site_symmetry_multiplicity
  _atom_site_fract_x
  _atom_site_fract_y
  _atom_site_fract_z
  _atom_site_occupancy
  Li  Li1       1.0  0.0025410056114196777  0.745374532864389  0.06158714648336172  1.0000
  Li  Li2       1.0  0.269187418743968  0.6857359516434371  0.5424591249320656  1.0000
  Li  Li3       1.0  0.07181695033796132  0.9639116623438895  0.6140177478082478  1.0000
  Li  Li4       1.0  0.7509608129039407  0.5503132267913315  0.00818012049421668  1.0000
  H   H1        1.0  0.059546893113292754  0.8119997384492308  0.59071124647744  1.0000
  H   H2        1.0  0.37313999654725194  0.03711497783660889  0.17355036020308034  1.0000
  H   H3        1.0  0.01767580211162567  0.9623305797576904  0.10445925605017692  1.0000
  H   H4        1.0  0.9572256756946445  0.6451249560341239  0.21823408809723333  1.0000
  S   S1        1.0  0.38711571256862953  0.9038625524262898  0.7276227256515995  1.0000
  S   S2        1.0  0.13879399374127388  0.5984310992062092  0.1461929869838059  1.0000
  O   O1        1.0  0.7196500801946968  0.930468050588388  0.9627100473735482  1.0000
  O   O2        1.0  0.7409234927035868  0.024376389803364873  0.3889851827407256  1.0000
  O   O3        1.0  0.8481472702696919  0.7753489850729238  0.2712177513167262  1.0000
  O   O4        1.0  0.0545708688441664  0.2419883731054142  0.26111193269025534  1.0000
  O   O5        1.0  0.396600948239211  0.05751708065508865  0.5526234990102239  1.0000
  O   O6        1.0  0.7273654276505113  0.2815359183587134  0.12463193293660879  1.0000
  O   O7        1.0  0.7225304499734193  0.08159075648291036  0.9520422520581633  1.0000
  O   O8        1.0  0.6107136381324381  0.6240886437299196  0.7858606450026855  1.0000
  O   O9        1.0  0.6473453666549176  0.5047262110747397  0.384483874309808  1.0000
  O   O10       1.0  0.526727372314781  0.8614961476996541  0.09499590011546388  1.0000
data_image112
_chemical_formula_structural       Li4H4S2O10
_chemical_formula_sum              "Li4 H4 S2 O10"
_cell_length_a       4.90399
_cell_length_b       5.555894000000001
_cell_length_c       8.269645510084757
_cell_angle_alpha    72.8917451750904
_cell_angle_beta     90.0
_cell_angle_gamma    90.0

_space_group_name_H-M_alt    "P 1"
_space_group_IT_number       1

loop_
  _space_group_symop_operation_xyz
  'x, y, z'

loop_
  _atom_site_type_symbol
  _atom_site_label
  _atom_site_symmetry_multiplicity
  _atom_site_fract_x
  _atom_site_fract_y
  _atom_site_fract_z
  _atom_site_occupancy
  Li  Li1       1.0  0.5622421707957983  0.0076615754660451785  0.2353792921639979  1.0000
  Li  Li2       1.0  0.37281329929828644  0.0414499135222286  0.22525355801917613  1.0000
  Li  Li3       1.0  0.7833345347316936  0.009735342813655734  0.25579233560711145  1.0000
  Li  Li4       1.0  0.054571857675909996  0.4558539199351799  0.9293721334543079  1.0000
  H   H1        1.0  0.1188501090509817  0.16843004105612636  0.21622918057255447  1.0000
  H   H2        1.0  0.8554338812828064  0.011433230713009834  0.6623895771117532  1.0000
  H   H3        1.0  0.8527287347242236  0.7119177831336856  0.99673365149647  1.0000
  H   H4        1.0  0.21858412772417068  0.5867749436292797  0.8577893921174109  1.0000
  S   S1        1.0  0.16898901452077553  0.790218252397608  0.8574384039384313  1.0000
  S   S2        1.0  0.9368744667153805  0.7025159617187455  0.17687144875526428  1.0000
  O   O1        1.0  0.8544218502938747  0.3048120568273589  0.8325309211795684  1.0000
  O   O2        1.0  0.2517461380921304  0.4850266638677567  0.02809863688889891  1.0000
  O   O3        1.0  0.7802976621314883  0.2591859095991822  0.40406038891524076  1.0000
  O   O4        1.0  0.06612280139233917  0.12271796748973429  0.6629308122210205  1.0000
  O   O5        1.0  0.528770287783118  0.34847374907985795  0.5978326465119608  1.0000
  O   O6        1.0  0.0755191957578063  0.8972049558069557  0.32957150181755424  1.0000
  O   O7        1.0  0.5309507913189009  0.425508561427705  0.40803737670648843  1.0000
  O   O8        1.0  0.6855833053123206  0.2534312144271098  0.15592957008630037  1.0000
  O   O9        1.0  0.9631291839759797  0.3726271477062255  0.1104033880692441  1.0000
  O   O10       1.0  0.6300858920440078  0.9210276766680181  0.8221172907506116  1.0000
data_image113
_chemical_formula_structural       Li4H4S2O10
_chemical_formula_sum              "Li4 H4 S2 O10"
_cell_length_a       4.90399
_cell_length_b       5.555894000000001
_cell_length_c       8.269645510084757
_cell_angle_alpha    72.8917451750904
_cell_angle_beta     90.0
_cell_angle_gamma    90.0

_space_group_name_H-M_alt    "P 1"
_space_group_IT_number       1

loop_
  _space_group_symop_operation_xyz
  'x, y, z'

loop_
  _atom_site_type_symbol
  _atom_site_label
  _atom_site_symmetry_multiplicity
  _atom_site_fract_x
  _atom_site_fract_y
  _atom_site_fract_z
  _atom_site_occupancy
  Li  Li1       1.0  0.8234762181527913  0.5941686168807792  0.3100655230227858  1.0000
  Li  Li2       1.0  0.4419261962175369  0.46685486542992294  0.3720925012603402  1.0000
  Li  Li3       1.0  0.9808261706493795  0.7729121684096754  0.3687630374915898  1.0000
  Li  Li4       1.0  0.8669563168659806  0.8166138132219203  0.473726105177775  1.0000
  H   H1        1.0  0.2204197170212865  0.9198779643047601  0.20160112669691443  1.0000
  H   H2        1.0  0.5368707440793514  0.7747506606392562  0.40575641742907465  1.0000
  H   H3        1.0  0.09887483064085245  0.7510665385052562  0.7417060519801453  1.0000
  H   H4        1.0  0.27940139546990395  0.5486234177369624  0.9032996804453433  1.0000
  S   S1        1.0  0.6013676820439287  0.4797744093229994  0.1268526393105276  1.0000
  S   S2        1.0  0.5702787336194888  0.003355034627020359  0.9073310892563313  1.0000
  O   O1        1.0  0.015145495068281889  0.1564538966922555  0.0459954468824435  1.0000
  O   O2        1.0  0.32410078635439277  0.2615635981783271  0.8574709162348881  1.0000
  O   O3        1.0  0.5551315029151738  0.7148282375710551  0.20967032085172832  1.0000
  O   O4        1.0  0.3140621759230271  0.9077350902371109  0.3478168530855328  1.0000
  O   O5        1.0  0.6591766622441355  0.6998092440871915  0.6064658027025871  1.0000
  O   O6        1.0  0.8689707778394222  0.19404953555203974  0.19120956351980567  1.0000
  O   O7        1.0  0.6990931780310348  0.5089804675953928  0.6459989520953968  1.0000
  O   O8        1.0  0.26009228196926415  0.918612753317575  0.6305497512221336  1.0000
  O   O9        1.0  0.8348079156130552  0.8486235833261162  0.10721453963196836  1.0000
  O   O10       1.0  0.3500134195201099  0.49555453564971685  0.808152201527264  1.0000
data_image114
_chemical_formula_structural       Li4H4S2O10
_chemical_formula_sum              "Li4 H4 S2 O10"
_cell_length_a       4.90399
_cell_length_b       5.555894000000001
_cell_length_c       8.269645510084757
_cell_angle_alpha    72.8917451750904
_cell_angle_beta     90.0
_cell_angle_gamma    90.0

_space_group_name_H-M_alt    "P 1"
_space_group_IT_number       1

loop_
  _space_group_symop_operation_xyz
  'x, y, z'

loop_
  _atom_site_type_symbol
  _atom_site_label
  _atom_site_symmetry_multiplicity
  _atom_site_fract_x
  _atom_site_fract_y
  _atom_site_fract_z
  _atom_site_occupancy
  Li  Li1       1.0  0.9551405841484666  0.39037121113506146  0.49994849669747055  1.0000
  Li  Li2       1.0  0.9494822369888425  0.6096688341349363  0.5253562270663679  1.0000
  Li  Li3       1.0  0.44739745929837227  0.1408652774989605  0.39718979923054576  1.0000
  Li  Li4       1.0  0.1593612041324377  0.9311466291983379  0.1747013907879591  1.0000
  H   H1        1.0  0.5965261324308813  0.3575905612669885  0.29727470385842025  1.0000
  H   H2        1.0  0.34281130554154515  0.23454963834956288  0.1126004571269732  1.0000
  H   H3        1.0  0.7864532242529094  0.7702611722052097  0.25199176534079015  1.0000
  H   H4        1.0  0.6306324014440179  0.06437870720401406  0.11847196135204285  1.0000
  S   S1        1.0  0.2571158469072543  0.876506781714852  0.07730882847681642  1.0000
  S   S2        1.0  0.8763336532283574  0.12200655823107809  0.35371744888834655  1.0000
  O   O1        1.0  0.8990662486758083  0.8136514858051669  0.8336828469764441  1.0000
  O   O2        1.0  0.13384141447022557  0.20050812780391425  0.5223535589175299  1.0000
  O   O3        1.0  0.18949618842452765  0.29014804321923293  0.6102433039341122  1.0000
  O   O4        1.0  0.6176604551728815  0.19195022457279265  0.6388011904200539  1.0000
  O   O5        1.0  0.024478661362081766  0.16762086117159924  0.25049331708578393  1.0000
  O   O6        1.0  0.8661536062136292  0.10326845711097121  0.3487684812862426  1.0000
  O   O7        1.0  0.8108977224910632  0.008896260027540848  0.45721838530153036  1.0000
  O   O8        1.0  0.5221584348473698  0.8806562808458693  0.24712729814928025  1.0000
  O   O9        1.0  0.24237851216457784  0.48627333249896765  0.9629957485594787  1.0000
  O   O10       1.0  0.5368631388992071  0.6164324199780822  0.2957770678331144  1.0000
data_image115
_chemical_formula_structural       Li4H4S2O10
_chemical_formula_sum              "Li4 H4 S2 O10"
_cell_length_a       4.90399
_cell_length_b       5.555894000000001
_cell_length_c       8.269645510084757
_cell_angle_alpha    72.8917451750904
_cell_angle_beta     90.0
_cell_angle_gamma    90.0

_space_group_name_H-M_alt    "P 1"
_space_group_IT_number       1

loop_
  _space_group_symop_operation_xyz
  'x, y, z'

loop_
  _atom_site_type_symbol
  _atom_site_label
  _atom_site_symmetry_multiplicity
  _atom_site_fract_x
  _atom_site_fract_y
  _atom_site_fract_z
  _atom_site_occupancy
  Li  Li1       1.0  0.5861175935715437  0.5472800846910104  0.5750582239124924  1.0000
  Li  Li2       1.0  0.9023603042587638  0.13462151680141687  0.5558428830699995  1.0000
  Li  Li3       1.0  0.996316090459004  0.5607917224988341  0.5234985281713307  1.0000
  Li  Li4       1.0  0.6263364758342505  0.035915426022256725  0.5586286699399352  1.0000
  H   H1        1.0  0.46082728169858456  0.17482218821533024  0.7761253397911787  1.0000
  H   H2        1.0  0.9834927832707763  0.30051309149712324  0.9371677929302678  1.0000
  H   H3        1.0  0.514645854011178  0.7360670091584325  0.8478540404466912  1.0000
  H   H4        1.0  0.2032962664961815  0.09885377320460975  0.9874666936229914  1.0000
  S   S1        1.0  0.1564655634574592  0.2870255222078413  0.46089848870178685  1.0000
  S   S2        1.0  0.6626250754343346  0.23036883247550577  0.8294874676503241  1.0000
  O   O1        1.0  0.16326845390722156  0.4139989864488598  0.9689775226579513  1.0000
  O   O2        1.0  0.3698422801680863  0.22273083950858563  0.7329003469785675  1.0000
  O   O3        1.0  0.7180407806299627  0.7691282185551245  0.10632329015061259  1.0000
  O   O4        1.0  0.7853345912881196  0.7679536599898711  0.010972356423735619  1.0000
  O   O5        1.0  0.5926449074759148  0.7711142417465453  0.7989029632299207  1.0000
  O   O6        1.0  0.3123560808598995  0.3318074808921665  0.3591665825806558  1.0000
  O   O7        1.0  0.8491807607933879  0.2122963216388598  0.29706157313194126  1.0000
  O   O8        1.0  0.438664544839412  0.43492635192524176  0.3995335588697344  1.0000
  O   O9        1.0  0.8121929462067783  0.2774275438860059  0.14082615496590734  1.0000
  O   O10       1.0  0.48213220946490765  0.44063091604039073  0.3191610367211979  1.0000
data_image116
_chemical_formula_structural       Li4H4S2O10
_chemical_formula_sum              "Li4 H4 S2 O10"
_cell_length_a       4.90399
_cell_length_b       5.555894000000001
_cell_length_c       8.269645510084757
_cell_angle_alpha    72.8917451750904
_cell_angle_beta     90.0
_cell_angle_gamma    90.0

_space_group_name_H-M_alt    "P 1"
_space_group_IT_number       1

loop_
  _space_group_symop_operation_xyz
  'x, y, z'

loop_
  _atom_site_type_symbol
  _atom_site_label
  _atom_site_symmetry_multiplicity
  _atom_site_fract_x
  _atom_site_fract_y
  _atom_site_fract_z
  _atom_site_occupancy
  Li  Li1       1.0  0.31458669109269977  0.19382488291012123  0.2827835555654019  1.0000
  Li  Li2       1.0  0.30868773348629475  0.893433989258483  0.7762006386183202  1.0000
  Li  Li3       1.0  0.9189140305388719  0.9431146930437535  0.8952935417182744  1.0000
  Li  Li4       1.0  0.7716341968625784  0.15171162477054168  0.8872778022196144  1.0000
  H   H1        1.0  0.9819378471001983  0.10977012966759503  0.905675366288051  1.0000
  H   H2        1.0  0.7890898208133876  0.15763587458059192  0.2935425397590734  1.0000
  H   H3        1.0  0.6228322382085025  0.05682016722857952  0.40516245912294835  1.0000
  H   H4        1.0  0.734779151622206  0.23859165469184518  0.9091189840110019  1.0000
  S   S1        1.0  0.8561393481213599  0.4617108538514003  0.2130741512228269  1.0000
  S   S2        1.0  0.11534426861908287  0.723291841102764  0.3326449301093817  1.0000
  O   O1        1.0  0.49941995088011026  0.915077887053485  0.24523051423602737  1.0000
  O   O2        1.0  0.13073628209531307  0.7202330867294222  0.6593624192755669  1.0000
  O   O3        1.0  0.5900235259905457  0.34053035874967463  0.4868805503938347  1.0000
  O   O4        1.0  0.3068262300803326  0.022081709350459278  0.3977097237948328  1.0000
  O   O5        1.0  0.0762211372202728  0.9314736658125184  0.011316994146909565  1.0000
  O   O6        1.0  0.7467957041226327  0.8072070798370987  0.727727944497019  1.0000
  O   O7        1.0  0.6169785095844418  0.38834029773715883  0.4599607646232471  1.0000
  O   O8        1.0  0.4477532096207142  0.33124829844746273  0.7857870288426057  1.0000
  O   O9        1.0  0.7745847622863948  0.3209012821316719  0.4235937503108289  1.0000
  O   O10       1.0  0.9250348256900907  0.9448832818306983  0.04052156745456159  1.0000
data_image117
_chemical_formula_structural       Li4H4S2O10
_chemical_formula_sum              "Li4 H4 S2 O10"
_cell_length_a       4.90399
_cell_length_b       5.555894000000001
_cell_length_c       8.269645510084757
_cell_angle_alpha    72.8917451750904
_cell_angle_beta     90.0
_cell_angle_gamma    90.0

_space_group_name_H-M_alt    "P 1"
_space_group_IT_number       1

loop_
  _space_group_symop_operation_xyz
  'x, y, z'

loop_
  _atom_site_type_symbol
  _atom_site_label
  _atom_site_symmetry_multiplicity
  _atom_site_fract_x
  _atom_site_fract_y
  _atom_site_fract_z
  _atom_site_occupancy
  Li  Li1       1.0  0.8699924529064447  0.4726002300158143  0.6497159323189408  1.0000
  Li  Li2       1.0  0.39666789025068283  0.520216966047883  0.0699767917394638  1.0000
  Li  Li3       1.0  0.7392088409978896  0.35994741041213274  0.34943877742625773  1.0000
  Li  Li4       1.0  0.40630026813596487  0.3057428182946751  0.8768200827762485  1.0000
  H   H1        1.0  0.6756364912725985  0.29199851420708  0.9492136237677187  1.0000
  H   H2        1.0  0.3955322992987931  0.8995925751514733  0.05732871733198408  1.0000
  H   H3        1.0  0.5136306066997349  0.9549503233283758  0.8251333910739049  1.0000
  H   H4        1.0  0.39028073474764824  0.7326239764224738  0.8641196882817894  1.0000
  S   S1        1.0  0.04757070681080222  0.12296406691893935  0.5347662849453627  1.0000
  S   S2        1.0  0.8282825354253873  0.6265117805451155  0.7251981401350349  1.0000
  O   O1        1.0  0.31494043697603047  0.6421098791470286  0.11877174483379349  1.0000
  O   O2        1.0  0.00983241107314825  0.4698193740914576  0.2656829972984269  1.0000
  O   O3        1.0  0.9470518971793354  0.7484151698299684  0.9810219921637326  1.0000
  O   O4        1.0  0.3432312501827255  0.4292055352125317  0.6512461365200579  1.0000
  O   O5        1.0  0.27305504234391265  7.76950764702633e-05  0.31163627601927146  1.0000
  O   O6        1.0  0.566710997838527  0.9268796308897436  0.3782172263599932  1.0000
  O   O7        1.0  0.7456565028987825  0.19186906912364066  0.5050381040200591  1.0000
  O   O8        1.0  0.4328347183763981  0.4581236569501925  0.8463225041050464  1.0000
  O   O9        1.0  0.884823405649513  0.7971720590721816  0.3350589498586487  1.0000
  O   O10       1.0  0.9408571827225387  0.5374420783482492  0.39152782724704593  1.0000
data_image118
_chemical_formula_structural       Li4H4S2O10
_chemical_formula_sum              "Li4 H4 S2 O10"
_cell_length_a       4.90399
_cell_length_b       5.555894000000001
_cell_length_c       8.269645510084757
_cell_angle_alpha    72.8917451750904
_cell_angle_beta     90.0
_cell_angle_gamma    90.0

_space_group_name_H-M_alt    "P 1"
_space_group_IT_number       1

loop_
  _space_group_symop_operation_xyz
  'x, y, z'

loop_
  _atom_site_type_symbol
  _atom_site_label
  _atom_site_symmetry_multiplicity
  _atom_site_fract_x
  _atom_site_fract_y
  _atom_site_fract_z
  _atom_site_occupancy
  Li  Li1       1.0  0.3402647622860968  0.9494758356013335  0.5771963666193187  1.0000
  Li  Li2       1.0  0.9587414711713791  0.20976461272221059  0.14624339062720537  1.0000
  Li  Li3       1.0  0.36731122771743685  0.6041580408345908  0.6733269731048495  1.0000
  Li  Li4       1.0  0.41989734303206205  0.9812920461554313  0.8491176324896514  1.0000
  H   H1        1.0  0.3152949740178883  0.17622873513028026  0.8312730097677559  1.0000
  H   H2        1.0  0.5325745460577309  0.18765613390132785  0.817853408458177  1.0000
  H   H3        1.0  0.3897245293483138  0.9386776983737946  0.032100214157253504  1.0000
  H   H4        1.0  0.1365008275024593  0.047431170009076595  0.6324383604805917  1.0000
  S   S1        1.0  0.14079312793910503  0.6933360660623293  0.14615548588335514  1.0000
  S   S2        1.0  0.41058108408469707  0.4288809255231172  0.810813715448603  1.0000
  O   O1        1.0  0.09947782545350492  0.8792948878835887  0.18231784645467997  1.0000
  O   O2        1.0  0.13256203942000866  0.11036065226653591  0.7886203461093828  1.0000
  O   O3        1.0  0.9556255792267621  0.8729517704341561  0.6057651133742183  1.0000
  O   O4        1.0  0.5394249037490226  0.7708566782530397  0.40913512639235705  1.0000
  O   O5        1.0  0.2124896856257692  0.06552832524903351  0.28668553760508075  1.0000
  O   O6        1.0  0.10168982855975628  0.4816451461520046  0.7587714500259608  1.0000
  O   O7        1.0  0.9557044494431466  0.19413264105969574  0.18115552584640682  1.0000
  O   O8        1.0  0.6086379941552877  0.7519218668458052  0.6155227889539674  1.0000
  O   O9        1.0  0.247126049362123  0.16469930717721581  0.022443648922489956  1.0000
  O   O10       1.0  0.5319157461635768  0.6645173281431198  0.7792200637341011  1.0000
data_image119
_chemical_formula_structural       Li4H4S2O10
_chemical_formula_sum              "Li4 H4 S2 O10"
_cell_length_a       4.90399
_cell_length_b       5.555894000000001
_cell_length_c       8.269645510084757
_cell_angle_alpha    72.8917451750904
_cell_angle_beta     90.0
_cell_angle_gamma    90.0

_space_group_name_H-M_alt    "P 1"
_space_group_IT_number       1

loop_
  _space_group_symop_operation_xyz
  'x, y, z'

loop_
  _atom_site_type_symbol
  _atom_site_label
  _atom_site_symmetry_multiplicity
  _atom_site_fract_x
  _atom_site_fract_y
  _atom_site_fract_z
  _atom_site_occupancy
  Li  Li1       1.0  0.8412321740761399  0.513632828486152  0.934312311001122  1.0000
  Li  Li2       1.0  0.2729777544736862  0.10696163517422974  0.7755332626402378  1.0000
  Li  Li3       1.0  0.2432702680816874  0.8460156712681055  0.14599205716513097  1.0000
  Li  Li4       1.0  0.924664156511426  0.9627122392412275  0.6536171012558043  1.0000
  H   H1        1.0  0.8387344633229077  0.5145355116110295  0.7803155919536948  1.0000
  H   H2        1.0  0.5682361354120076  0.7696870313957334  0.4948044044722337  1.0000
  H   H3        1.0  0.5825997777283192  0.30067976005375385  0.12840039387810975  1.0000
  H   H4        1.0  0.9562877025455236  0.24343425454571843  0.06263766810297966  1.0000
  S   S1        1.0  7.516192272305489e-05  0.03484189543814864  0.5641012039704947  1.0000
  S   S2        1.0  0.8986613606102765  0.12248308712150902  0.9497047695331275  1.0000
  O   O1        1.0  0.7211235675495118  0.2592980390181765  0.30450427231698995  1.0000
  O   O2        1.0  0.8263668187428266  0.10280422458890826  0.7483961664838716  1.0000
  O   O3        1.0  0.11327153071761131  0.4938545696204528  0.4162305819336325  1.0000
  O   O4        1.0  0.06831628386862576  0.7704600084107369  0.3699239973211661  1.0000
  O   O5        1.0  0.960816479055211  0.8208621075682458  0.6152780565316789  1.0000
  O   O6        1.0  0.17379857460036874  0.9338051676750183  0.9128939709626138  1.0000
  O   O7        1.0  0.6156732940580696  0.8468473087268649  0.7224965015193447  1.0000
  O   O8        1.0  0.33647438208572567  0.11941406276309863  0.02212392573710531  1.0000
  O   O9        1.0  0.6351347966119647  0.6329061794094741  0.1452321502729319  1.0000
  O   O10       1.0  0.06541779031977057  0.38914369558915496  0.19670441251946613  1.0000
data_image120
_chemical_formula_structural       Li4H4S2O10
_chemical_formula_sum              "Li4 H4 S2 O10"
_cell_length_a       4.90399
_cell_length_b       5.555894000000001
_cell_length_c       8.269645510084757
_cell_angle_alpha    72.8917451750904
_cell_angle_beta     90.0
_cell_angle_gamma    90.0

_space_group_name_H-M_alt    "P 1"
_space_group_IT_number       1

loop_
  _space_group_symop_operation_xyz
  'x, y, z'

loop_
  _atom_site_type_symbol
  _atom_site_label
  _atom_site_symmetry_multiplicity
  _atom_site_fract_x
  _atom_site_fract_y
  _atom_site_fract_z
  _atom_site_occupancy
  Li  Li1       1.0  0.06177222263067961  0.5420042330515571  0.30465012905187905  1.0000
  Li  Li2       1.0  0.7649546526372433  0.846279313089326  0.15815317444503307  1.0000
  Li  Li3       1.0  0.7632260737009346  0.15549621055833995  0.48424756596796215  1.0000
  Li  Li4       1.0  0.4369047097861767  0.2272203574248124  0.4415349387563765  1.0000
  H   H1        1.0  0.4326194068416953  0.5841946243308485  0.39848045399412513  1.0000
  H   H2        1.0  0.5666267098858953  0.3606631411239505  0.7745560816911166  1.0000
  H   H3        1.0  0.8778190282173455  0.8644899278879166  0.43083495215978473  1.0000
  H   H4        1.0  0.8072432456538081  0.0004258453845977783  0.5359961001668125  1.0000
  S   S1        1.0  0.4892713469453156  0.03904103650711477  0.9876826289109886  1.0000
  S   S2        1.0  0.22081336530391127  0.33295195270329714  0.8848558797035366  1.0000
  O   O1        1.0  0.07553639821708202  0.671204860729631  0.7516857981827343  1.0000
  O   O2        1.0  0.2409189462196082  0.13229825696907938  0.03247124853078276  1.0000
  O   O3        1.0  0.9538405407220125  0.8289249143563211  0.28239994309842587  1.0000
  O   O4        1.0  0.37205821846146137  0.7344576289178804  0.8330517899012193  1.0000
  O   O5        1.0  0.06412620801711455  0.12607956020110578  0.91852308093803  1.0000
  O   O6        1.0  0.05328048067167401  0.461099999723956  0.20468021812848747  1.0000
  O   O7        1.0  0.8163264724425972  0.9331372314481996  0.5165648930706084  1.0000
  O   O8        1.0  0.393000484444201  0.7984780083934311  0.8265527120092884  1.0000
  O   O9        1.0  0.11289284471422434  0.6583023422863334  0.8926880709332181  1.0000
  O   O10       1.0  0.5240171104669571  0.9911399902775884  0.7190254702873062  1.0000
data_image121
_chemical_formula_structural       Li4H4S2O10
_chemical_formula_sum              "Li4 H4 S2 O10"
_cell_length_a       4.90399
_cell_length_b       5.555894000000001
_cell_length_c       8.269645510084757
_cell_angle_alpha    72.8917451750904
_cell_angle_beta     90.0
_cell_angle_gamma    90.0

_space_group_name_H-M_alt    "P 1"
_space_group_IT_number       1

loop_
  _space_group_symop_operation_xyz
  'x, y, z'

loop_
  _atom_site_type_symbol
  _atom_site_label
  _atom_site_symmetry_multiplicity
  _atom_site_fract_x
  _atom_site_fract_y
  _atom_site_fract_z
  _atom_site_occupancy
  Li  Li1       1.0  0.30393511964939535  0.4428262769943103  0.8454629031475633  1.0000
  Li  Li2       1.0  0.3029639609158039  0.1848460496403277  0.08000071998685598  1.0000
  Li  Li3       1.0  0.19742854544892907  0.9042627848684788  0.004155006725341082  1.0000
  Li  Li4       1.0  0.6301938956603408  0.5740327154780971  0.12422541994601488  1.0000
  H   H1        1.0  0.6787395854480565  0.4352670565713197  0.06721425801515579  1.0000
  H   H2        1.0  0.42148889042437077  0.2897596568800509  0.5175584254320711  1.0000
  H   H3        1.0  0.532320671249181  0.30268385633826256  0.48232588171958923  1.0000
  H   H4        1.0  0.17349500488489866  0.13193796249106526  0.5025265263393521  1.0000
  S   S1        1.0  0.6914704805240035  0.6710289368784288  0.31274847153690644  1.0000
  S   S2        1.0  0.44506294350139797  0.4017146984115243  0.7363144757691771  1.0000
  O   O1        1.0  0.6953512143809348  0.2613380608090665  0.15684482621145435  1.0000
  O   O2        1.0  0.2951928097754717  0.4310756398481317  0.8261844026274048  1.0000
  O   O3        1.0  0.7322581689804792  0.8300442087929696  0.15002137585543096  1.0000
  O   O4        1.0  0.4648610352887772  0.652802869793959  0.7902849245583639  1.0000
  O   O5        1.0  0.780838247446809  0.31521947884903057  0.5071995950420387  1.0000
  O   O6        1.0  0.2899952079169452  0.46248647617176175  0.784713874803856  1.0000
  O   O7        1.0  0.6039424350019544  0.2807760038995184  0.5630475085927173  1.0000
  O   O8        1.0  0.2124502130318433  0.2802569573686924  0.16801763966213912  1.0000
  O   O9        1.0  0.97588553535752  0.3070384955499321  0.8463581637188327  1.0000
  O   O10       1.0  0.4729137518443167  0.3206924847327173  0.6004180715535767  1.0000
data_image122
_chemical_formula_structural       Li4H4S2O10
_chemical_formula_sum              "Li4 H4 S2 O10"
_cell_length_a       4.90399
_cell_length_b       5.555894000000001
_cell_length_c       8.269645510084757
_cell_angle_alpha    72.8917451750904
_cell_angle_beta     90.0
_cell_angle_gamma    90.0

_space_group_name_H-M_alt    "P 1"
_space_group_IT_number       1

loop_
  _space_group_symop_operation_xyz
  'x, y, z'

loop_
  _atom_site_type_symbol
  _atom_site_label
  _atom_site_symmetry_multiplicity
  _atom_site_fract_x
  _atom_site_fract_y
  _atom_site_fract_z
  _atom_site_occupancy
  Li  Li1       1.0  0.7924759876914322  0.07623445440549403  0.17184298066422343  1.0000
  Li  Li2       1.0  0.329552561044693  0.6416656991932541  0.04989246279001236  1.0000
  Li  Li3       1.0  0.49577095441054553  0.8987019259948283  0.5349736805073917  1.0000
  Li  Li4       1.0  0.4253749046474695  0.7662868209299631  0.1985116619616747  1.0000
  H   H1        1.0  0.5500148613937199  0.45370029704645276  0.365909464424476  1.0000
  H   H2        1.0  0.7444382980465889  0.8072109878994524  0.5400054469500901  1.0000
  H   H3        1.0  0.3987808250822127  0.6022605430334806  0.32490382820833474  1.0000
  H   H4        1.0  0.05591491609811783  0.5695774690248072  0.0018258204218000174  1.0000
  S   S1        1.0  0.8989852541126311  0.9069221793615725  0.2749825979117304  1.0000
  S   S2        1.0  0.49277720239479095  0.8698514502029866  0.6647911733016372  1.0000
  O   O1        1.0  0.9768074001185596  0.6849952014454175  0.7722539006208535  1.0000
  O   O2        1.0  0.3805140962358564  0.24469763011438772  0.23326988593908027  1.0000
  O   O3        1.0  0.8264397135935724  0.5656145722605288  0.5683431967627257  1.0000
  O   O4        1.0  0.12286154553294182  0.12199991301167756  0.6602306142449379  1.0000
  O   O5        1.0  0.7875701881130226  0.7008649517956655  0.9231313890777528  1.0000
  O   O6        1.0  0.06768182385712862  0.029988249763846397  0.9467001447919756  1.0000
  O   O7        1.0  0.42067178688012064  0.8965450362011325  0.41325842775404453  1.0000
  O   O8        1.0  0.8596742164809257  0.9125381947669666  0.26314494980033487  1.0000
  O   O9        1.0  0.14268028014339507  0.3080827770754695  0.5464995828515384  1.0000
  O   O10       1.0  0.49739615386351943  0.38703780667856336  0.412547116226051  1.0000
data_image123
_chemical_formula_structural       Li4H4S2O10
_chemical_formula_sum              "Li4 H4 S2 O10"
_cell_length_a       4.90399
_cell_length_b       5.555894000000001
_cell_length_c       8.269645510084757
_cell_angle_alpha    72.8917451750904
_cell_angle_beta     90.0
_cell_angle_gamma    90.0

_space_group_name_H-M_alt    "P 1"
_space_group_IT_number       1

loop_
  _space_group_symop_operation_xyz
  'x, y, z'

loop_
  _atom_site_type_symbol
  _atom_site_label
  _atom_site_symmetry_multiplicity
  _atom_site_fract_x
  _atom_site_fract_y
  _atom_site_fract_z
  _atom_site_occupancy
  Li  Li1       1.0  0.07335939747281373  0.7700119564542547  0.4477494384627789  1.0000
  Li  Li2       1.0  0.7560254335403442  0.8596069784834981  0.2779855942353606  1.0000
  Li  Li3       1.0  0.6886353075969964  0.37714713788591325  0.8486840659752488  1.0000
  Li  Li4       1.0  0.439801343716681  0.5784095233830158  0.2351829675026238  1.0000
  H   H1        1.0  0.8286975445225835  0.10711094923317432  0.7712647118605673  1.0000
  H   H2        1.0  0.5689255255274475  0.5533473575487733  0.17233130033127964  1.0000
  H   H3        1.0  0.06598347378894687  0.9898249860852957  0.5731300449697301  1.0000
  H   H4        1.0  0.8237862018868327  0.06443560915067792  0.683783856453374  1.0000
  S   S1        1.0  0.11144640808925033  0.12538942813989706  0.2721739890403114  1.0000
  S   S2        1.0  0.8717191166942939  0.8491084366105497  0.42096179095096886  1.0000
  O   O1        1.0  0.38291690801270306  0.6081157073494978  0.2712987516715657  1.0000
  O   O2        1.0  0.9738061567768455  0.5466724932193756  0.6360283088870347  1.0000
  O   O3        1.0  0.8351259925402701  0.007096323184669018  0.9414108199998736  1.0000
  O   O4        1.0  0.7773715651128441  0.4341901852749288  0.13320257607847452  1.0000
  O   O5        1.0  0.13736644521122798  0.6687899292046495  0.010779367643408477  1.0000
  O   O6        1.0  0.689098282251507  0.5162922122981399  0.7184796202927828  1.0000
  O   O7        1.0  0.10025180550292134  0.7288733933091862  0.6708112609339878  1.0000
  O   O8        1.0  0.11384033458307385  0.6081083285680506  0.22020336287096143  1.0000
  O   O9        1.0  0.6821870065759867  0.25491778599098325  0.7627710201195441  1.0000
  O   O10       1.0  0.7336607235483825  0.9727322347462177  0.21065698843449354  1.0000
data_image124
_chemical_formula_structural       Li4H4S2O10
_chemical_formula_sum              "Li4 H4 S2 O10"
_cell_length_a       4.90399
_cell_length_b       5.555894000000001
_cell_length_c       8.269645510084757
_cell_angle_alpha    72.8917451750904
_cell_angle_beta     90.0
_cell_angle_gamma    90.0

_space_group_name_H-M_alt    "P 1"
_space_group_IT_number       1

loop_
  _space_group_symop_operation_xyz
  'x, y, z'

loop_
  _atom_site_type_symbol
  _atom_site_label
  _atom_site_symmetry_multiplicity
  _atom_site_fract_x
  _atom_site_fract_y
  _atom_site_fract_z
  _atom_site_occupancy
  Li  Li1       1.0  0.18443912081420422  0.5743994102231227  0.023998118471354246  1.0000
  Li  Li2       1.0  0.7264177650213242  0.9020346507895738  0.06384441629052162  1.0000
  Li  Li3       1.0  0.46598685439676046  0.9232373901177198  0.2574771512299776  1.0000
  Li  Li4       1.0  0.7477824613451958  0.1822509910998633  0.9841304598376155  1.0000
  H   H1        1.0  0.27039183489978313  0.7497700673993677  0.27778027625754476  1.0000
  H   H2        1.0  0.6570708793587983  0.2540853195823729  0.5820229238306638  1.0000
  H   H3        1.0  0.7813727506436408  0.5113512650132179  0.2981545065995306  1.0000
  H   H4        1.0  0.26659378595650196  0.41781701846048236  0.8934549672994763  1.0000
  S   S1        1.0  0.6485093622468412  0.2829115435597487  0.7112272221129388  1.0000
  S   S2        1.0  0.40596481843385845  0.7456288512330502  0.4229700667783618  1.0000
  O   O1        1.0  0.05402564909309149  0.10628335451474413  0.772915640642168  1.0000
  O   O2        1.0  0.6653291815891862  0.40867430943762884  0.5179541139514185  1.0000
  O   O3        1.0  0.8627519658766687  0.43695493321865797  0.32733272458426654  1.0000
  O   O4        1.0  0.22323670575860888  0.21225630084518343  0.5258050166303292  1.0000
  O   O5        1.0  0.7748917778371833  0.03639501740690321  0.8861729784985073  1.0000
  O   O6        1.0  0.760534287430346  0.777681413339451  0.3967488205526024  1.0000
  O   O7        1.0  0.13516892958432436  0.7782288429734763  0.40726227092090994  1.0000
  O   O8        1.0  0.3472466738894582  0.7004173901223112  0.37021026527509093  1.0000
  O   O9        1.0  0.48981433850713074  0.7884057848714292  0.722268883138895  1.0000
  O   O10       1.0  0.33184416964650154  0.6758452858775854  0.8409686688682996  1.0000
data_image125
_chemical_formula_structural       Li4H4S2O10
_chemical_formula_sum              "Li4 H4 S2 O10"
_cell_length_a       4.90399
_cell_length_b       5.555894000000001
_cell_length_c       8.269645510084757
_cell_angle_alpha    72.8917451750904
_cell_angle_beta     90.0
_cell_angle_gamma    90.0

_space_group_name_H-M_alt    "P 1"
_space_group_IT_number       1

loop_
  _space_group_symop_operation_xyz
  'x, y, z'

loop_
  _atom_site_type_symbol
  _atom_site_label
  _atom_site_symmetry_multiplicity
  _atom_site_fract_x
  _atom_site_fract_y
  _atom_site_fract_z
  _atom_site_occupancy
  Li  Li1       1.0  0.348537327721715  0.44256511400453746  0.8747250167652965  1.0000
  Li  Li2       1.0  0.2130952961742878  0.819729691138491  0.4044415708631277  1.0000
  Li  Li3       1.0  0.8083218153333291  0.08623490598984063  0.2846397457178682  1.0000
  Li  Li4       1.0  0.05184223037213087  0.12584658138803206  0.29800494224764407  1.0000
  H   H1        1.0  0.13671612413600087  0.3772491589188576  0.5942887112032622  1.0000
  H   H2        1.0  0.7029363324400038  0.43993603996932507  0.7592860125587322  1.0000
  H   H3        1.0  0.8728450192138553  0.04419739544391632  0.21734303736593574  1.0000
  H   H4        1.0  0.8587303599342704  0.14106990257278085  0.3044044552370906  1.0000
  S   S1        1.0  0.08543485729023814  0.8105467528221197  0.843575747567229  1.0000
  S   S2        1.0  0.028245036024600267  0.6149040968157351  0.8896921018604189  1.0000
  O   O1        1.0  0.7861568459775299  0.624794953444507  0.7381416993739549  1.0000
  O   O2        1.0  0.6409661755897105  0.4412977549363859  0.15102922002552077  1.0000
  O   O3        1.0  0.7064898679964244  0.08472817414440215  0.36594669916667044  1.0000
  O   O4        1.0  0.0780844260007143  0.5414296775124967  0.7563552653882653  1.0000
  O   O5        1.0  0.7827173676923849  0.3484389531186025  0.12249388237250969  1.0000
  O   O6        1.0  0.4843088840134442  0.3985696118324995  0.7744752506259829  1.0000
  O   O7        1.0  0.4542332380078733  0.6047266951936763  0.014491745387203991  1.0000
  O   O8        1.0  0.5370966070331633  0.0008741079072933644  0.2750871552852914  1.0000
  O   O9        1.0  0.015606533270329237  0.8216064595617354  0.06806364835938439  1.0000
  O   O10       1.0  0.3308311137370765  0.47777850925922394  0.08110527880489826  1.0000
data_image126
_chemical_formula_structural       Li4H4S2O10
_chemical_formula_sum              "Li4 H4 S2 O10"
_cell_length_a       4.90399
_cell_length_b       5.555894000000001
_cell_length_c       8.269645510084757
_cell_angle_alpha    72.8917451750904
_cell_angle_beta     90.0
_cell_angle_gamma    90.0

_space_group_name_H-M_alt    "P 1"
_space_group_IT_number       1

loop_
  _space_group_symop_operation_xyz
  'x, y, z'

loop_
  _atom_site_type_symbol
  _atom_site_label
  _atom_site_symmetry_multiplicity
  _atom_site_fract_x
  _atom_site_fract_y
  _atom_site_fract_z
  _atom_site_occupancy
  Li  Li1       1.0  0.8237145591992885  0.6858527366421185  0.7623801587615162  1.0000
  Li  Li2       1.0  0.8999024368822575  0.405486837727949  0.052808704786002636  1.0000
  Li  Li3       1.0  0.1912375094834715  0.9700265710707754  0.20561671210452914  1.0000
  Li  Li4       1.0  0.3677804470062256  0.7811407420813339  0.6099493820220232  1.0000
  H   H1        1.0  0.534665351966396  0.15044146799482405  0.5244660240132362  1.0000
  H   H2        1.0  0.7785169861745089  0.30433701421134174  0.16275892464909703  1.0000
  H   H3        1.0  0.9463352733291686  0.934819458052516  0.8425249326974154  1.0000
  H   H4        1.0  0.7744356873445213  0.23402495263144374  0.0022620451636612415  1.0000
  S   S1        1.0  0.7499529900960624  0.5244175913685467  0.3111207790207118  1.0000
  S   S2        1.0  0.26554308139020577  0.7006236589513719  0.682342890650034  1.0000
  O   O1        1.0  0.40796009614132345  0.7219557813950814  0.6143994938465767  1.0000
  O   O2        1.0  0.8676144094206393  0.47718603210523725  0.7599914378952235  1.0000
  O   O3        1.0  0.24913039477542043  0.1412592171691358  0.9400361692532897  1.0000
  O   O4        1.0  0.5041642810683697  0.561898015672341  0.27301731356419623  1.0000
  O   O5        1.0  0.7621021861559711  0.3422546296060318  0.5755100971437059  1.0000
  O   O6        1.0  0.8286270680837333  0.1996136091183871  0.2623840153682977  1.0000
  O   O7        1.0  0.4362851148471236  0.26541024484322406  0.3766248441534117  1.0000
  O   O8        1.0  0.850627560634166  0.2985331434174441  0.3992483566980809  1.0000
  O   O9        1.0  0.8637864731717855  0.24259094893932343  0.13347260555019602  1.0000
  O   O10       1.0  0.25855896761640906  0.11395389726385474  0.6354569367249496  1.0000
data_image127
_chemical_formula_structural       Li4H4S2O10
_chemical_formula_sum              "Li4 H4 S2 O10"
_cell_length_a       4.90399
_cell_length_b       5.555894000000001
_cell_length_c       8.269645510084757
_cell_angle_alpha    72.8917451750904
_cell_angle_beta     90.0
_cell_angle_gamma    90.0

_space_group_name_H-M_alt    "P 1"
_space_group_IT_number       1

loop_
  _space_group_symop_operation_xyz
  'x, y, z'

loop_
  _atom_site_type_symbol
  _atom_site_label
  _atom_site_symmetry_multiplicity
  _atom_site_fract_x
  _atom_site_fract_y
  _atom_site_fract_z
  _atom_site_occupancy
  Li  Li1       1.0  0.6072116072755307  0.7119882447295822  0.6079812543466687  1.0000
  Li  Li2       1.0  0.5174450986087322  0.27600954845547676  0.05857653450220823  1.0000
  Li  Li3       1.0  0.45598235609941185  0.33507227269001305  0.5788117181509733  1.0000
  Li  Li4       1.0  0.4123980449512601  0.9059018580883276  0.21766017330810428  1.0000
  H   H1        1.0  0.3896576950792223  0.34943431289866567  0.5511173538397998  1.0000
  H   H2        1.0  0.32044600044901017  0.022809197660535574  0.6357663818635046  1.0000
  H   H3        1.0  0.467962872935459  0.8000491447746754  0.06498059969453607  1.0000
  H   H4        1.0  0.10014985641464591  0.4725319482386112  0.08680033730342984  1.0000
  S   S1        1.0  0.12218149937689304  0.6891241279954556  0.004790702078025788  1.0000
  S   S2        1.0  0.09778696746798232  0.7978706940775737  0.781069993507117  1.0000
  O   O1        1.0  0.7659814469516277  0.8223524959175847  0.988608879619278  1.0000
  O   O2        1.0  0.30012075137346983  0.6036389336222783  0.10200270946370438  1.0000
  O   O3        1.0  0.987210099119693  0.9086615960113704  0.826125293970108  1.0000
  O   O4        1.0  0.562021397985518  0.8552147831069306  0.8591697476804256  1.0000
  O   O5        1.0  0.17027246713405475  0.471974432010029  0.9105819542892277  1.0000
  O   O6        1.0  0.23955927370116115  0.7450486442539841  0.8447954221628606  1.0000
  O   O7        1.0  0.3094162514898926  0.4300626645417651  0.40897392842452973  1.0000
  O   O8        1.0  0.9047472607344389  0.09031778134522028  0.7737013929290697  1.0000
  O   O9        1.0  0.11337859812192619  0.05570673057809472  0.07011587676242925  1.0000
  O   O10       1.0  0.49933390179648995  0.7839185688644648  0.003102609218331054  1.0000
data_image128
_chemical_formula_structural       Li4H4S2O10
_chemical_formula_sum              "Li4 H4 S2 O10"
_cell_length_a       4.90399
_cell_length_b       5.555894000000001
_cell_length_c       8.269645510084757
_cell_angle_alpha    72.8917451750904
_cell_angle_beta     90.0
_cell_angle_gamma    90.0

_space_group_name_H-M_alt    "P 1"
_space_group_IT_number       1

loop_
  _space_group_symop_operation_xyz
  'x, y, z'

loop_
  _atom_site_type_symbol
  _atom_site_label
  _atom_site_symmetry_multiplicity
  _atom_site_fract_x
  _atom_site_fract_y
  _atom_site_fract_z
  _atom_site_occupancy
  Li  Li1       1.0  0.07199128321371973  0.11267050384776667  0.20056931371800601  1.0000
  Li  Li2       1.0  0.36348388344049454  0.7318267689552158  0.13154891040176153  1.0000
  Li  Li3       1.0  0.6495647871633992  0.045827183639630675  0.7305143342819065  1.0000
  Li  Li4       1.0  0.9428440881893039  0.513086078572087  0.2232112903147936  1.0000
  H   H1        1.0  0.6087418620008975  0.07138858642429113  0.43713444331660867  1.0000
  H   H2        1.0  0.6165208257152699  0.9229495408944786  0.7590747640933841  1.0000
  H   H3        1.0  0.30860583181492984  0.45729351975023746  0.7452032603614498  1.0000
  H   H4        1.0  0.856033525429666  0.5806269086897373  0.37921608821488917  1.0000
  S   S1        1.0  0.37161736842244864  0.0392107893130742  0.9405247278045863  1.0000
  S   S2        1.0  0.4236654310952872  0.01876689458731562  0.11825650790706277  1.0000
  O   O1        1.0  0.0681855627335608  0.22607994941063225  0.8393584395234939  1.0000
  O   O2        1.0  0.9350183075293899  0.6922189316246659  0.5841822442598641  1.0000
  O   O3        1.0  0.14593204949051142  0.4557392590213567  0.052909773075953126  1.0000
  O   O4        1.0  0.05147575249429792  0.46713935036677867  0.6476456228410825  1.0000
  O   O5        1.0  0.38562328490661457  0.2029652069832082  0.6345478900475428  1.0000
  O   O6        1.0  0.29704286996275187  0.2791594786103815  0.4255232715513557  1.0000
  O   O7        1.0  0.6705561787821352  0.22364333007135428  0.060475815436802804  1.0000
  O   O8        1.0  0.5390849784016609  0.17349010438192636  0.7347996546886861  1.0000
  O   O9        1.0  0.4889053790830076  0.11079997289925814  0.036563634988851845  1.0000
  O   O10       1.0  0.26151462690904737  0.19385072402656078  0.21539717804989778  1.0000
data_image129
_chemical_formula_structural       Li4H4S2O10
_chemical_formula_sum              "Li4 H4 S2 O10"
_cell_length_a       4.90399
_cell_length_b       5.555894000000001
_cell_length_c       8.269645510084757
_cell_angle_alpha    72.8917451750904
_cell_angle_beta     90.0
_cell_angle_gamma    90.0

_space_group_name_H-M_alt    "P 1"
_space_group_IT_number       1

loop_
  _space_group_symop_operation_xyz
  'x, y, z'

loop_
  _atom_site_type_symbol
  _atom_site_label
  _atom_site_symmetry_multiplicity
  _atom_site_fract_x
  _atom_site_fract_y
  _atom_site_fract_z
  _atom_site_occupancy
  Li  Li1       1.0  0.22615243215113878  0.12604769098106772  0.8136712878476828  1.0000
  Li  Li2       1.0  0.7478810139000416  0.6855406879913062  0.7580477967858315  1.0000
  Li  Li3       1.0  0.2313754817005247  0.7519174187909812  0.4425859646871686  1.0000
  Li  Li4       1.0  0.192174700088799  0.4375441335287178  0.8027715745847672  1.0000
  H   H1        1.0  0.08330585970543325  0.8727885070256889  0.43774126493372023  1.0000
  H   H2        1.0  0.2249244366248604  0.7166546233929694  0.966968264663592  1.0000
  H   H3        1.0  0.9649994964711368  0.9544888846576214  0.38149556930875406  1.0000
  H   H4        1.0  0.7869455609470606  0.7040848643518984  0.46780170360580087  1.0000
  S   S1        1.0  0.7887071734294295  0.8828732157126069  0.10656135622411966  1.0000
  S   S2        1.0  0.7483034416218288  0.1611276746261865  0.46665111649781466  1.0000
  O   O1        1.0  0.6887857774272561  0.9124049110105261  0.8095350179501111  1.0000
  O   O2        1.0  0.07257539266720414  0.18931752984644845  0.02740230760537088  1.0000
  O   O3        1.0  0.2451303582638502  0.7083172805141658  0.23531932942569256  1.0000
  O   O4        1.0  0.3322289891075343  0.6251768909860402  0.5693676183000207  1.0000
  O   O5        1.0  0.7526193738449365  0.6181427089104545  0.29525976500008255  1.0000
  O   O6        1.0  0.3040344687178731  0.9244842552579939  0.21135901659727097  1.0000
  O   O7        1.0  0.9585207090713084  0.2823743939079577  0.7458313583629206  1.0000
  O   O8        1.0  0.4959966288879514  0.2498236876563169  0.2598107677185908  1.0000
  O   O9        1.0  0.33487286674790084  0.6391262919642031  0.996168286743341  1.0000
  O   O10       1.0  0.5075351228006184  0.008662011008709669  0.8972316768486053  1.0000
data_image130
_chemical_formula_structural       Li4H4S2O10
_chemical_formula_sum              "Li4 H4 S2 O10"
_cell_length_a       4.90399
_cell_length_b       5.555894000000001
_cell_length_c       8.269645510084757
_cell_angle_alpha    72.8917451750904
_cell_angle_beta     90.0
_cell_angle_gamma    90.0

_space_group_name_H-M_alt    "P 1"
_space_group_IT_number       1

loop_
  _space_group_symop_operation_xyz
  'x, y, z'

loop_
  _atom_site_type_symbol
  _atom_site_label
  _atom_site_symmetry_multiplicity
  _atom_site_fract_x
  _atom_site_fract_y
  _atom_site_fract_z
  _atom_site_occupancy
  Li  Li1       1.0  0.5902900430373847  0.3587895466480404  0.719173525692895  1.0000
  Li  Li2       1.0  0.3523453623056412  0.46409965003840625  0.09496488515287638  1.0000
  Li  Li3       1.0  0.8565346000250429  0.8410019460134208  0.9393971615936607  1.0000
  Li  Li4       1.0  0.6418022317811847  0.353299440612318  0.8892756146378815  1.0000
  H   H1        1.0  0.622312227729708  0.2144269603304565  0.9349688373040408  1.0000
  H   H2        1.0  0.4054879460018128  0.28716475097462535  0.5615392250474542  1.0000
  H   H3        1.0  0.05166754778474569  0.37854774110019207  0.9402746803825721  1.0000
  H   H4        1.0  0.27082291478291154  0.2640848979353905  0.5660434442106634  1.0000
  S   S1        1.0  0.6657304246909916  0.4252318830695003  0.07273637683829293  1.0000
  S   S2        1.0  0.30923114699544385  0.9558462727582082  0.5059510024730116  1.0000
  O   O1        1.0  0.41761395474895835  0.4096555456635542  0.05806928779929876  1.0000
  O   O2        1.0  0.9810624602250755  0.20550462388200685  0.9340576860704459  1.0000
  O   O3        1.0  0.4567155698314309  0.8258030486758798  0.5030509375501424  1.0000
  O   O4        1.0  0.5543104421813041  0.21114299481268972  0.4175177895813249  1.0000
  O   O5        1.0  0.02868694526841864  0.7434721390964114  0.9816474529216066  1.0000
  O   O6        1.0  0.4121365654282272  0.852637198055163  0.30243396339938045  1.0000
  O   O7        1.0  0.866501996293664  0.5631138668104541  0.8066417130175978  1.0000
  O   O8        1.0  0.42433045292273164  0.20795416552573442  0.9505643182201311  1.0000
  O   O9        1.0  0.030600552912801504  0.709624188952148  0.659292077034479  1.0000
  O   O10       1.0  0.2978640692308545  0.7872006101533771  0.8514163808722515  1.0000
data_image131
_chemical_formula_structural       Li4H4S2O10
_chemical_formula_sum              "Li4 H4 S2 O10"
_cell_length_a       4.90399
_cell_length_b       5.555894000000001
_cell_length_c       8.269645510084757
_cell_angle_alpha    72.8917451750904
_cell_angle_beta     90.0
_cell_angle_gamma    90.0

_space_group_name_H-M_alt    "P 1"
_space_group_IT_number       1

loop_
  _space_group_symop_operation_xyz
  'x, y, z'

loop_
  _atom_site_type_symbol
  _atom_site_label
  _atom_site_symmetry_multiplicity
  _atom_site_fract_x
  _atom_site_fract_y
  _atom_site_fract_z
  _atom_site_occupancy
  Li  Li1       1.0  0.6365580810233951  0.8752710451371968  0.6088014536071569  1.0000
  Li  Li2       1.0  0.6239158436655998  0.03738377150148153  0.614139155484736  1.0000
  Li  Li3       1.0  0.564226814196445  0.023586519993841648  0.9907014935743064  1.0000
  Li  Li4       1.0  0.3077326761558652  0.9072688506566919  0.2885143992025405  1.0000
  H   H1        1.0  0.504682625643909  0.6331472718156874  0.6355334063991904  1.0000
  H   H2        1.0  0.41638388397404924  0.957946830894798  0.7654701778665185  1.0000
  H   H3        1.0  0.1567596986424178  0.37106928415596485  0.645578306983225  1.0000
  H   H4        1.0  0.43130153557285666  0.8995364448055625  0.33274682448245585  1.0000
  S   S1        1.0  0.29562116879969835  0.8994790321885375  0.6634315964765847  1.0000
  S   S2        1.0  0.848538390302565  0.4117943469900638  0.6773121852893382  1.0000
  O   O1        1.0  0.19639284256845713  0.14817883929936215  0.05369835074816365  1.0000
  O   O2        1.0  0.5090027339756489  0.0011152768856845796  0.6348715275526047  1.0000
  O   O3        1.0  0.7196641778573394  0.7309196849819273  0.2125034616328776  1.0000
  O   O4        1.0  0.04268222308019176  0.7867147587239742  0.6117004810948856  1.0000
  O   O5        1.0  0.37277456844458356  0.2540013430698309  0.03585408703656867  1.0000
  O   O6        1.0  0.41070658760145307  0.6695071761496365  0.597966298693791  1.0000
  O   O7        1.0  0.05079298513010144  0.5702544421365019  0.7517697388539091  1.0000
  O   O8        1.0  0.19728703424334526  0.4325144598260522  0.06077790551353246  1.0000
  O   O9        1.0  0.03520055813714862  0.5884514315985143  0.17204843665240332  1.0000
  O   O10       1.0  0.5698565002530813  0.3835895680822432  0.02370957372477278  1.0000
data_image132
_chemical_formula_structural       Li4H4S2O10
_chemical_formula_sum              "Li4 H4 S2 O10"
_cell_length_a       4.90399
_cell_length_b       5.555894000000001
_cell_length_c       8.269645510084757
_cell_angle_alpha    72.8917451750904
_cell_angle_beta     90.0
_cell_angle_gamma    90.0

_space_group_name_H-M_alt    "P 1"
_space_group_IT_number       1

loop_
  _space_group_symop_operation_xyz
  'x, y, z'

loop_
  _atom_site_type_symbol
  _atom_site_label
  _atom_site_symmetry_multiplicity
  _atom_site_fract_x
  _atom_site_fract_y
  _atom_site_fract_z
  _atom_site_occupancy
  Li  Li1       1.0  0.18086154130287468  0.8547639946918935  0.9825629186816514  1.0000
  Li  Li2       1.0  0.9527013152837753  0.48322891537100077  0.30586417112499475  1.0000
  Li  Li3       1.0  0.1375581028405577  0.7305448446422815  0.9713538712821901  1.0000
  Li  Li4       1.0  0.8250972740352154  0.7079931380285416  0.16688165185041726  1.0000
  H   H1        1.0  0.9237612187862396  0.4696848043240607  0.230926661984995  1.0000
  H   H2        1.0  0.27790031291078776  0.6726817060261965  0.1289737792685628  1.0000
  H   H3        1.0  0.08740164362825453  0.5868436358869076  0.3224017603788525  1.0000
  H   H4        1.0  0.7899352270178497  0.4214517204090953  0.7861558641307056  1.0000
  S   S1        1.0  0.13024854892864823  0.9328550341742812  0.7534662829129957  1.0000
  S   S2        1.0  0.021543220325838774  0.46547961374744773  0.3261473176535219  1.0000
  O   O1        1.0  0.5265336860902607  0.3056896109483205  0.39148025659960695  1.0000
  O   O2        1.0  0.6861596121452749  0.5452157479012385  0.010622780653648078  1.0000
  O   O3        1.0  0.15938056213781238  0.8332542320713401  0.023312102537602186  1.0000
  O   O4        1.0  0.6943172718165442  0.261977743008174  0.1182505133911036  1.0000
  O   O5        1.0  0.3466471857391298  0.27213538203795906  0.7339756226283498  1.0000
  O   O6        1.0  0.07454328192397952  0.6395739989820868  0.03768159542232752  1.0000
  O   O7        1.0  0.6306348484940827  0.742104803211987  0.2725042474921793  1.0000
  O   O8        1.0  0.219587666913867  0.6228907923214138  0.8805115341674536  1.0000
  O   O9        1.0  0.006676407298073173  0.9886632319539785  0.9390681077493355  1.0000
  O   O10       1.0  0.2662993189878762  0.9101482937112451  0.025743810721905902  1.0000
data_image133
_chemical_formula_structural       Li4H4S2O10
_chemical_formula_sum              "Li4 H4 S2 O10"
_cell_length_a       4.90399
_cell_length_b       5.555894000000001
_cell_length_c       8.269645510084757
_cell_angle_alpha    72.8917451750904
_cell_angle_beta     90.0
_cell_angle_gamma    90.0

_space_group_name_H-M_alt    "P 1"
_space_group_IT_number       1

loop_
  _space_group_symop_operation_xyz
  'x, y, z'

loop_
  _atom_site_type_symbol
  _atom_site_label
  _atom_site_symmetry_multiplicity
  _atom_site_fract_x
  _atom_site_fract_y
  _atom_site_fract_z
  _atom_site_occupancy
  Li  Li1       1.0  0.6839586652349681  0.14296255842782557  0.5550201199948788  1.0000
  Li  Li2       1.0  0.6991998665034771  0.49892944074235857  0.17441865615546703  1.0000
  Li  Li3       1.0  0.6368724284111522  0.6461925159674138  0.07698637363500893  1.0000
  Li  Li4       1.0  0.3198254285380244  0.7369465035299072  0.6856117569841444  1.0000
  H   H1        1.0  0.9984395797364414  0.9371350295841694  0.7990201753564179  1.0000
  H   H2        1.0  0.355521458433941  0.3096958314999938  0.5782630362082273  1.0000
  H   H3        1.0  0.8996685859747231  0.7099442100152373  0.06761727546108887  1.0000
  H   H4        1.0  0.7561234491877258  0.17917618062347174  0.5285319646354765  1.0000
  S   S1        1.0  0.06723774690181017  0.46450845983054023  0.1307670166133903  1.0000
  S   S2        1.0  0.08272541913902387  0.13308995962142944  0.9772273893468082  1.0000
  O   O1        1.0  0.8139452342875302  0.6461039482383057  0.3773298996820813  1.0000
  O   O2        1.0  0.4794586836360395  0.28429051814600825  0.37184010609053075  1.0000
  O   O3        1.0  0.4330614060163498  0.8840154286008328  0.1922941564116627  1.0000
  O   O4        1.0  0.6828685770742595  0.18118030938785523  0.019761946459766477  1.0000
  O   O5        1.0  0.6042973411967978  0.5553465055272682  0.2703986794222146  1.0000
  O   O6        1.0  0.42889853846281767  0.8026312219444662  0.6137438020668924  1.0000
  O   O7        1.0  0.806352065410465  0.2926190837606555  0.4718803162686527  1.0000
  O   O8        1.0  0.5924044316634536  0.21563648176379502  0.3722225133096799  1.0000
  O   O9        1.0  0.6604824063833803  0.6674674930982292  0.3055989455024246  1.0000
  O   O10       1.0  0.5096945790573955  0.013460555113852024  0.9364294737169985  1.0000
data_image134
_chemical_formula_structural       Li4H4S2O10
_chemical_formula_sum              "Li4 H4 S2 O10"
_cell_length_a       4.90399
_cell_length_b       5.555894000000001
_cell_length_c       8.269645510084757
_cell_angle_alpha    72.8917451750904
_cell_angle_beta     90.0
_cell_angle_gamma    90.0

_space_group_name_H-M_alt    "P 1"
_space_group_IT_number       1

loop_
  _space_group_symop_operation_xyz
  'x, y, z'

loop_
  _atom_site_type_symbol
  _atom_site_label
  _atom_site_symmetry_multiplicity
  _atom_site_fract_x
  _atom_site_fract_y
  _atom_site_fract_z
  _atom_site_occupancy
  Li  Li1       1.0  0.6576372541021556  0.19822233211016282  0.707866991404444  1.0000
  Li  Li2       1.0  0.4251345209777355  0.0732779554091394  0.011685351841151714  1.0000
  Li  Li3       1.0  0.639546592021361  0.4623214879538864  0.2773231267929077  1.0000
  Li  Li4       1.0  0.0895393481478095  0.14696030993945897  0.27537174918688834  1.0000
  H   H1        1.0  0.8250836352817714  0.5522625567391515  0.13250592700205743  1.0000
  H   H2        1.0  0.5541129320627078  0.8824639767408371  0.5198050960898399  1.0000
  H   H3        1.0  0.6788489904720336  0.8216323293745518  0.22718181263189763  1.0000
  H   H4        1.0  0.47372131841257215  0.2638293160125613  0.9981136913411319  1.0000
  S   S1        1.0  0.41999150766059756  0.16711202441365458  0.41845222347183153  1.0000
  S   S2        1.0  0.829241102328524  0.5108912456780672  0.003959134453907609  1.0000
  O   O1        1.0  0.10359890945255756  0.5805678642354906  0.3730972476332681  1.0000
  O   O2        1.0  0.07119289878755808  0.6426597714307718  0.2355460895341821  1.0000
  O   O3        1.0  0.27648896677419543  0.6579037930350751  0.7078250057529658  1.0000
  O   O4        1.0  0.7940990056958981  0.6369335202034563  0.743253304855898  1.0000
  O   O5        1.0  0.08829733618767932  0.3412748966948129  0.5987323620938696  1.0000
  O   O6        1.0  0.4123233500868082  0.3292675770353526  0.4966585971415043  1.0000
  O   O7        1.0  0.25605882494710386  0.37041767962728045  0.8716848733602092  1.0000
  O   O8        1.0  0.7614554483443499  0.9075362816220149  0.3034841479966417  1.0000
  O   O9        1.0  0.2478768154978752  0.8174256030470133  0.44876096441294067  1.0000
  O   O10       1.0  0.5971847581677139  0.11557347839698195  0.344825711712474  1.0000
data_image135
_chemical_formula_structural       Li4H4S2O10
_chemical_formula_sum              "Li4 H4 S2 O10"
_cell_length_a       4.90399
_cell_length_b       5.555894000000001
_cell_length_c       8.269645510084757
_cell_angle_alpha    72.8917451750904
_cell_angle_beta     90.0
_cell_angle_gamma    90.0

_space_group_name_H-M_alt    "P 1"
_space_group_IT_number       1

loop_
  _space_group_symop_operation_xyz
  'x, y, z'

loop_
  _atom_site_type_symbol
  _atom_site_label
  _atom_site_symmetry_multiplicity
  _atom_site_fract_x
  _atom_site_fract_y
  _atom_site_fract_z
  _atom_site_occupancy
  Li  Li1       1.0  0.11541607999242842  0.16487391013652086  0.702572813956067  1.0000
  Li  Li2       1.0  0.14971570298075676  0.23989482666365802  0.7672159401699901  1.0000
  Li  Li3       1.0  0.2962621172773652  0.05683560506440699  0.3840073235332966  1.0000
  Li  Li4       1.0  0.9917656602337956  0.9352521345863352  0.043575220042839646  1.0000
  H   H1        1.0  0.9963953667320311  0.7311485623940825  0.48167676059529185  1.0000
  H   H2        1.0  0.3292426948901266  0.13471622206270695  0.3464251314289868  1.0000
  H   H3        1.0  0.49041997361928225  0.10518582910299301  0.23445427609840408  1.0000
  H   H4        1.0  0.7653946070931852  0.5907036517746747  0.8395315371453762  1.0000
  S   S1        1.0  0.175839782692492  0.6255341608193703  0.5180085150059313  1.0000
  S   S2        1.0  0.25715464970562607  0.11450749030336738  0.63926562666893  1.0000
  O   O1        1.0  0.745723336469382  0.6978018883964978  0.2340456012316281  1.0000
  O   O2        1.0  0.6397872418165207  0.7883907248033211  0.8650074565084651  1.0000
  O   O3        1.0  0.2644133954308927  0.9070291600655764  0.19896575203165412  1.0000
  O   O4        1.0  0.3614018941880204  0.5340852931840345  0.9921007371158339  1.0000
  O   O5        1.0  0.8924909241031855  0.6771996698444127  0.9058246114291251  1.0000
  O   O6        1.0  0.8317304053343832  0.7638255774509162  0.15829658461734653  1.0000
  O   O7        1.0  0.3498537144623697  0.03786258558102418  0.8354753059102222  1.0000
  O   O8        1.0  0.25303716445341706  0.32069424889050424  0.48443068156484514  1.0000
  O   O9        1.0  0.11332652810961008  0.6955772512592375  0.06866058029117994  1.0000
  O   O10       1.0  0.962974397931248  0.7725679026916623  0.8674975925241597  1.0000
data_image136
_chemical_formula_structural       Li4H4S2O10
_chemical_formula_sum              "Li4 H4 S2 O10"
_cell_length_a       4.90399
_cell_length_b       5.555894000000001
_cell_length_c       8.269645510084757
_cell_angle_alpha    72.8917451750904
_cell_angle_beta     90.0
_cell_angle_gamma    90.0

_space_group_name_H-M_alt    "P 1"
_space_group_IT_number       1

loop_
  _space_group_symop_operation_xyz
  'x, y, z'

loop_
  _atom_site_type_symbol
  _atom_site_label
  _atom_site_symmetry_multiplicity
  _atom_site_fract_x
  _atom_site_fract_y
  _atom_site_fract_z
  _atom_site_occupancy
  Li  Li1       1.0  0.7786312601529062  0.9501791572547518  0.45014121220447123  1.0000
  Li  Li2       1.0  0.3489351123571396  0.6050375250633806  0.8880470087751746  1.0000
  Li  Li3       1.0  0.29917653067968786  0.8304649707861245  0.3670808270107955  1.0000
  Li  Li4       1.0  0.8044499196112156  0.9336957553459797  0.9590744168963283  1.0000
  H   H1        1.0  0.6897227000445127  0.959272257052362  0.8723136326298118  1.0000
  H   H2        1.0  0.17364865919807926  0.8453656332567334  0.6729179287794977  1.0000
  H   H3        1.0  0.44273065589368343  0.15492686815559864  0.8846399475587532  1.0000
  H   H4        1.0  0.2321566604077816  0.48829958122223616  0.2813899973407388  1.0000
  S   S1        1.0  0.8045141543261707  0.7966670920141041  0.5529198470176198  1.0000
  S   S2        1.0  0.7349792066961527  0.38191903475672007  0.6042139558121562  1.0000
  O   O1        1.0  0.25031196093186736  0.3282842437620275  0.031761141639435664  1.0000
  O   O2        1.0  0.12354058492928743  0.09411384479608387  0.2473300629062578  1.0000
  O   O3        1.0  0.11050815135240555  0.24245260749012232  0.8315537765156478  1.0000
  O   O4        1.0  0.23089390149107203  0.6968450016574934  0.5493239792413078  1.0000
  O   O5        1.0  0.8698543171631172  0.21726868745463435  0.19756677537225187  1.0000
  O   O6        1.0  0.8987694350071251  0.07007678458467126  0.11023219022899866  1.0000
  O   O7        1.0  0.2475425919983536  0.3544665300869383  0.8351344155380502  1.0000
  O   O8        1.0  0.9319925741292536  0.17404667125083506  0.43572066200431436  1.0000
  O   O9        1.0  0.7790984981693327  0.33552853274159133  0.3350884703686461  1.0000
  O   O10       1.0  0.2680824436247349  0.8304747836664319  0.33003725769231096  1.0000
data_image137
_chemical_formula_structural       Li4H4S2O10
_chemical_formula_sum              "Li4 H4 S2 O10"
_cell_length_a       4.90399
_cell_length_b       5.555894000000001
_cell_length_c       8.269645510084757
_cell_angle_alpha    72.8917451750904
_cell_angle_beta     90.0
_cell_angle_gamma    90.0

_space_group_name_H-M_alt    "P 1"
_space_group_IT_number       1

loop_
  _space_group_symop_operation_xyz
  'x, y, z'

loop_
  _atom_site_type_symbol
  _atom_site_label
  _atom_site_symmetry_multiplicity
  _atom_site_fract_x
  _atom_site_fract_y
  _atom_site_fract_z
  _atom_site_occupancy
  Li  Li1       1.0  0.6064848527312279  0.8424269533716142  0.09974722564220428  1.0000
  Li  Li2       1.0  0.8520347513258457  0.19418098335154355  0.33226797450333834  1.0000
  Li  Li3       1.0  0.4751976011903025  0.27273248322308064  0.658331447513774  1.0000
  Li  Li4       1.0  0.4928587693721056  0.29299066799285356  0.38360085734166205  1.0000
  H   H1        1.0  0.5467533003538847  0.7488796007819474  0.2261161538772285  1.0000
  H   H2        1.0  0.7614051441196352  0.011764704715460539  0.3009160002693534  1.0000
  H   H3        1.0  0.5362774725072086  0.6262412164360285  0.69320399092976  1.0000
  H   H4        1.0  0.1293933151755482  0.8368927701376379  0.28227736288681626  1.0000
  S   S1        1.0  0.9998733680695295  0.64341176871676  0.8587570355157368  1.0000
  S   S2        1.0  0.2291302130324766  0.91754833701998  0.11218781769275665  1.0000
  O   O1        1.0  0.9934947523288429  0.3508857252309099  0.76856640400365  1.0000
  O   O2        1.0  0.31404287554323673  0.2780570156755857  0.3319811546243727  1.0000
  O   O3        1.0  0.9208456948399544  0.1525571532547474  0.7245781410019845  1.0000
  O   O4        1.0  0.4638655782327987  0.24339013849385083  0.4365131056983955  1.0000
  O   O5        1.0  0.9496217363630421  0.8506931815390999  0.8399797071469948  1.0000
  O   O6        1.0  0.29645692463964224  0.3873796707484871  0.4103261148557067  1.0000
  O   O7        1.0  0.9641917238477618  0.4792165307153482  0.5622942561749369  1.0000
  O   O8        1.0  0.42973734298720956  0.6319752088747919  0.6334482642123476  1.0000
  O   O9        1.0  0.001162922941148281  0.2879199762828648  0.3519342837680597  1.0000
  O   O10       1.0  0.13588429940864444  0.307446395047009  0.3294354025274515  1.0000
data_image138
_chemical_formula_structural       Li4H4S2O10
_chemical_formula_sum              "Li4 H4 S2 O10"
_cell_length_a       4.90399
_cell_length_b       5.555894000000001
_cell_length_c       8.269645510084757
_cell_angle_alpha    72.8917451750904
_cell_angle_beta     90.0
_cell_angle_gamma    90.0

_space_group_name_H-M_alt    "P 1"
_space_group_IT_number       1

loop_
  _space_group_symop_operation_xyz
  'x, y, z'

loop_
  _atom_site_type_symbol
  _atom_site_label
  _atom_site_symmetry_multiplicity
  _atom_site_fract_x
  _atom_site_fract_y
  _atom_site_fract_z
  _atom_site_occupancy
  Li  Li1       1.0  0.9736015440430492  0.8204564133193344  0.12175068887881935  1.0000
  Li  Li2       1.0  0.10799359530210495  0.43757006200030446  0.5105100153014064  1.0000
  Li  Li3       1.0  0.9184221323230304  0.2893454576842487  0.422253810800612  1.0000
  Li  Li4       1.0  0.43128324672579765  0.2942308609490283  0.5701837053056806  1.0000
  H   H1        1.0  0.8318813741207123  0.9642356252297759  0.5036454098299146  1.0000
  H   H2        1.0  0.7021022280678153  0.8765563652850688  0.7026455188170075  1.0000
  H   H3        1.0  0.6804105462506413  0.5645709224045277  0.48314431961625814  1.0000
  H   H4        1.0  0.6385477122385055  0.570262011140585  0.42805224750190973  1.0000
  S   S1        1.0  0.08607384003698826  0.7553789158118889  0.6498948486405425  1.0000
  S   S2        1.0  0.5347655428922735  0.21429453929886222  0.8026194288395345  1.0000
  O   O1        1.0  0.977312455419451  0.32192351861158386  0.04124276415677741  1.0000
  O   O2        1.0  0.02672852436080575  0.719892495078966  0.06402888975571841  1.0000
  O   O3        1.0  0.07657102309167385  0.04555364139378071  0.3610089940484613  1.0000
  O   O4        1.0  0.15932629257440567  0.6522441816050559  0.7890449622645974  1.0000
  O   O5        1.0  0.09461259166710079  0.0821257951320149  0.0001812746049836278  1.0000
  O   O6        1.0  0.28929690830409527  0.642037938348949  0.30263165896758437  1.0000
  O   O7        1.0  0.7240771292708814  0.9299044044018956  0.0214041022118181  1.0000
  O   O8        1.0  0.5078983562998474  0.7186782943317667  0.053393926471471786  1.0000
  O   O9        1.0  0.8379871444776654  0.24636420933529735  0.44290440643089823  1.0000
  O   O10       1.0  0.6698547070845962  0.3878553663380444  0.2545970658538863  1.0000
data_image139
_chemical_formula_structural       Li4H4S2O10
_chemical_formula_sum              "Li4 H4 S2 O10"
_cell_length_a       4.90399
_cell_length_b       5.555894000000001
_cell_length_c       8.269645510084757
_cell_angle_alpha    72.8917451750904
_cell_angle_beta     90.0
_cell_angle_gamma    90.0

_space_group_name_H-M_alt    "P 1"
_space_group_IT_number       1

loop_
  _space_group_symop_operation_xyz
  'x, y, z'

loop_
  _atom_site_type_symbol
  _atom_site_label
  _atom_site_symmetry_multiplicity
  _atom_site_fract_x
  _atom_site_fract_y
  _atom_site_fract_z
  _atom_site_occupancy
  Li  Li1       1.0  0.7265074481256306  0.3405642898287624  0.8374839231837541  1.0000
  Li  Li2       1.0  0.7257844507694244  0.1694093532860279  0.3307328363880515  1.0000
  Li  Li3       1.0  0.24595764698460698  0.21940418612211943  0.3052368382923305  1.0000
  Li  Li4       1.0  0.4676040904596448  0.41861661133589223  0.06474588951095939  1.0000
  H   H1        1.0  0.3456469811499119  0.501027837395668  0.0313567784614861  1.0000
  H   H2        1.0  0.42425482091493905  0.3196193352341652  0.21509898360818624  1.0000
  H   H3        1.0  0.8226436814293265  0.2834728145971894  0.6236190521158278  1.0000
  H   H4        1.0  0.12229491933248937  0.3789059934206307  0.6869632825255394  1.0000
  S   S1        1.0  0.8361051767133176  0.9041692282771692  0.03775687108282  1.0000
  S   S2        1.0  0.8111283453181386  0.15622085612267256  0.7696508239023387  1.0000
  O   O1        1.0  0.22742885537445545  0.26158258179202676  0.8901197485392913  1.0000
  O   O2        1.0  0.5997352078557014  0.49865053832763806  0.6773368241847493  1.0000
  O   O3        1.0  0.226714632473886  0.6014348159078509  0.14735236717388034  1.0000
  O   O4        1.0  0.12020580738317221  0.15834741201251745  0.2612783433869481  1.0000
  O   O5        1.0  0.0636777431354858  0.454025599261513  0.5749769457615912  1.0000
  O   O6        1.0  0.3465248728170991  0.5388100440613925  0.4139806325547397  1.0000
  O   O7        1.0  0.13882301282137632  0.9214660279685631  0.6132092486368492  1.0000
  O   O8        1.0  0.2775364383123815  0.7231951035792008  0.6275550491409376  1.0000
  O   O9        1.0  0.4976064506918192  0.9511958016082644  0.271923259482719  1.0000
  O   O10       1.0  0.12086625304073095  0.11923533142544329  0.5281784206163138  1.0000
data_image140
_chemical_formula_structural       Li4H4S2O10
_chemical_formula_sum              "Li4 H4 S2 O10"
_cell_length_a       4.90399
_cell_length_b       5.555894000000001
_cell_length_c       8.269645510084757
_cell_angle_alpha    72.8917451750904
_cell_angle_beta     90.0
_cell_angle_gamma    90.0

_space_group_name_H-M_alt    "P 1"
_space_group_IT_number       1

loop_
  _space_group_symop_operation_xyz
  'x, y, z'

loop_
  _atom_site_type_symbol
  _atom_site_label
  _atom_site_symmetry_multiplicity
  _atom_site_fract_x
  _atom_site_fract_y
  _atom_site_fract_z
  _atom_site_occupancy
  Li  Li1       1.0  0.8810358922928572  0.3500942748505622  0.8756177586037666  1.0000
  Li  Li2       1.0  0.9107748605310917  0.1946943763177842  0.8961501820012927  1.0000
  Li  Li3       1.0  0.6390796272899024  0.11815641447901726  0.3324636835604906  1.0000
  Li  Li4       1.0  0.8694805186241865  0.04630359381553717  0.7375117882620543  1.0000
  H   H1        1.0  0.2571960259228945  0.917846935801208  0.38292235555127263  1.0000
  H   H2        1.0  0.5884340657503344  0.631421314086765  0.26665017916820943  1.0000
  H   H3        1.0  0.9426246271468699  0.5931198820471764  0.5101689551956952  1.0000
  H   H4        1.0  0.14410066069103777  0.009524546097964048  0.4139002161100507  1.0000
  S   S1        1.0  0.18393780710175633  0.6257676458917558  0.12563837063498795  1.0000
  S   S2        1.0  0.5061405723681673  0.6193342886399478  0.0780137695837766  1.0000
  O   O1        1.0  0.23585551092401147  0.9757707634707913  0.9245734031428583  1.0000
  O   O2        1.0  0.14703340223059058  0.5013106751721352  0.495851289073471  1.0000
  O   O3        1.0  0.4831988667137921  0.9589316404890269  0.4037054586224258  1.0000
  O   O4        1.0  0.658978374558501  0.5447269144933671  0.8254092300776392  1.0000
  O   O5        1.0  0.7263300404301845  0.1836470022390131  0.9577365000732243  1.0000
  O   O6        1.0  0.6558839702047408  0.7160522371996194  0.8421682186890393  1.0000
  O   O7        1.0  0.2408314412459731  0.18802933226106688  0.7297510169446468  1.0000
  O   O8        1.0  0.2459707297384739  0.3908185261534527  0.526741495821625  1.0000
  O   O9        1.0  0.7086023343726993  0.5304044375661761  0.5217893041553907  1.0000
  O   O10       1.0  0.7551960507407784  0.7327515584183857  0.7528706942684948  1.0000
data_image141
_chemical_formula_structural       Li4H4S2O10
_chemical_formula_sum              "Li4 H4 S2 O10"
_cell_length_a       4.90399
_cell_length_b       5.555894000000001
_cell_length_c       8.269645510084757
_cell_angle_alpha    72.8917451750904
_cell_angle_beta     90.0
_cell_angle_gamma    90.0

_space_group_name_H-M_alt    "P 1"
_space_group_IT_number       1

loop_
  _space_group_symop_operation_xyz
  'x, y, z'

loop_
  _atom_site_type_symbol
  _atom_site_label
  _atom_site_symmetry_multiplicity
  _atom_site_fract_x
  _atom_site_fract_y
  _atom_site_fract_z
  _atom_site_occupancy
  Li  Li1       1.0  0.18847446516156197  0.7112612930359319  0.42206539981998503  1.0000
  Li  Li2       1.0  0.7106390930712223  0.6852735911961645  0.5934695648029447  1.0000
  Li  Li3       1.0  0.8590788783621974  0.2724169136490673  0.7089244422968477  1.0000
  Li  Li4       1.0  0.5723573565483093  0.3937787378090434  0.8215372422710061  1.0000
  H   H1        1.0  0.6618089750409126  0.9270204580388963  0.8300790213979781  1.0000
  H   H2        1.0  0.10246243624715135  0.10143707692623138  0.1777201402001083  1.0000
  H   H3        1.0  0.3034016820602119  0.8441512025892735  0.9556497603916796  1.0000
  H   H4        1.0  0.6104986453428864  0.7228852096013725  0.6823625462129712  1.0000
  S   S1        1.0  0.47745032887905836  0.568193918094039  0.11185252550058067  1.0000
  S   S2        1.0  0.6242996061919257  0.692878233268857  0.15840713144280016  1.0000
  O   O1        1.0  0.8191739302128553  0.3030347929452546  0.47154919750755653  1.0000
  O   O2        1.0  0.44615506613627076  0.17778428245219402  0.610512092593126  1.0000
  O   O3        1.0  0.08870388846844435  0.4953172658570111  0.43764144834131  1.0000
  O   O4        1.0  0.36588384094648063  0.20405910373665392  0.7734094483312219  1.0000
  O   O5        1.0  0.10500973917078227  0.9061438941862434  0.24044307647272944  1.0000
  O   O6        1.0  0.8156995642930269  0.056096159387379885  0.8031768177170306  1.0000
  O   O7        1.0  0.0755977185908705  0.2692097190883942  0.10993865341879427  1.0000
  O   O8        1.0  0.4389297002926469  0.7348702731542289  0.5854038707911968  1.0000
  O   O9        1.0  0.9708429463207722  0.34199399477802217  0.2329793650424108  1.0000
  O   O10       1.0  0.5407965844497085  0.12467630114406347  0.44252162252087146  1.0000
data_image142
_chemical_formula_structural       Li4H4S2O10
_chemical_formula_sum              "Li4 H4 S2 O10"
_cell_length_a       4.90399
_cell_length_b       5.555894000000001
_cell_length_c       8.269645510084757
_cell_angle_alpha    72.8917451750904
_cell_angle_beta     90.0
_cell_angle_gamma    90.0

_space_group_name_H-M_alt    "P 1"
_space_group_IT_number       1

loop_
  _space_group_symop_operation_xyz
  'x, y, z'

loop_
  _atom_site_type_symbol
  _atom_site_label
  _atom_site_symmetry_multiplicity
  _atom_site_fract_x
  _atom_site_fract_y
  _atom_site_fract_z
  _atom_site_occupancy
  Li  Li1       1.0  0.4291309700347483  0.253695237217471  0.9586525820195675  1.0000
  Li  Li2       1.0  0.9136093817651272  0.3780800481326878  0.4725000225007534  1.0000
  Li  Li3       1.0  0.7181593244313262  0.8552732693497092  0.2191615051124245  1.0000
  Li  Li4       1.0  0.12267583701759577  0.5083072705019731  0.8387179167475551  1.0000
  H   H1        1.0  0.6792610920965672  0.07715148571878672  0.2797104399651289  1.0000
  H   H2        1.0  0.05123669616295956  0.9381163823418319  0.9436323929112405  1.0000
  H   H3        1.0  0.6286070114001632  0.09408220835030079  0.20400670351227745  1.0000
  H   H4        1.0  0.511480346089229  0.4468108247965574  0.5982076823711395  1.0000
  S   S1        1.0  0.10060711903497577  0.723181635257788  0.42009378178045154  1.0000
  S   S2        1.0  0.10623144579585642  0.030856710160151124  0.6238323748111725  1.0000
  O   O1        1.0  0.6909754883963615  0.4111826975713484  0.802606207493227  1.0000
  O   O2        1.0  0.35126365488395095  0.47503045974008273  0.049568904330953956  1.0000
  O   O3        1.0  0.44139498053118587  0.03510619839653373  0.8870830114465207  1.0000
  O   O4        1.0  0.8957924470305443  0.15475118649192154  0.33552456443430856  1.0000
  O   O5        1.0  0.7462356396717951  0.1746789648605045  0.30395155760925263  1.0000
  O   O6        1.0  0.28930677473545074  0.5343531756661832  0.7399654085747898  1.0000
  O   O7        1.0  0.16930890665389597  0.48291528692061547  0.5146828908473253  1.0000
  O   O8        1.0  0.339303124230355  0.17566398321650922  0.7832951744785532  1.0000
  O   O9        1.0  0.294542508199811  0.5490163820795715  0.44985019881278276  1.0000
  O   O10       1.0  0.02714580111205578  0.5503976190229878  0.7821195701835677  1.0000
data_image143
_chemical_formula_structural       Li4H4S2O10
_chemical_formula_sum              "Li4 H4 S2 O10"
_cell_length_a       4.90399
_cell_length_b       5.555894000000001
_cell_length_c       8.269645510084757
_cell_angle_alpha    72.8917451750904
_cell_angle_beta     90.0
_cell_angle_gamma    90.0

_space_group_name_H-M_alt    "P 1"
_space_group_IT_number       1

loop_
  _space_group_symop_operation_xyz
  'x, y, z'

loop_
  _atom_site_type_symbol
  _atom_site_label
  _atom_site_symmetry_multiplicity
  _atom_site_fract_x
  _atom_site_fract_y
  _atom_site_fract_z
  _atom_site_occupancy
  Li  Li1       1.0  0.5493346080183983  0.5345861832611263  0.662560592405498  1.0000
  Li  Li2       1.0  0.3372029438614845  0.08917513815686107  0.9500498315319419  1.0000
  Li  Li3       1.0  0.7925576777779497  0.30751021741889417  0.5570271341130137  1.0000
  Li  Li4       1.0  0.3392912186682224  0.08604653425572906  0.3854502222966403  1.0000
  H   H1        1.0  0.016964692622423172  0.45886537013575435  0.9137085909023881  1.0000
  H   H2        1.0  0.8546606278105173  0.28152585541829467  0.8410294279456139  1.0000
  H   H3        1.0  0.6344625046476722  0.14294534921646118  0.4489717446267605  1.0000
  H   H4        1.0  0.8425860886927694  0.3396113682538271  0.188057747669518  1.0000
  S   S1        1.0  0.09163150982931256  0.7938444671453908  0.0871251403586939  1.0000
  S   S2        1.0  0.7563030019518919  0.37242201960179955  0.9731988932471722  1.0000
  O   O1        1.0  0.1849126962479204  0.4374611714738421  0.56616652070079  1.0000
  O   O2        1.0  0.9426271510310471  0.457369725627359  0.235591511009261  1.0000
  O   O3        1.0  0.8247778592631221  0.8154738573357463  0.6580196903087199  1.0000
  O   O4        1.0  0.15761031676083803  0.852402881719172  0.5610678455559537  1.0000
  O   O5        1.0  0.36768353963270783  0.5000442240561824  0.6998260418185964  1.0000
  O   O6        1.0  0.5643651755526662  0.3526302354875952  0.4695972525514662  1.0000
  O   O7        1.0  0.2868571477010846  0.5870673700264888  0.65278591576498  1.0000
  O   O8        1.0  0.10419252282008529  0.6809294667327777  0.3568028296576813  1.0000
  O   O9        1.0  0.7869836948812008  0.635231037158519  0.017137042130343616  1.0000
  O   O10       1.0  0.18405317794531584  0.4306885158875957  0.48010807763785124  1.0000
data_image144
_chemical_formula_structural       Li4H4S2O10
_chemical_formula_sum              "Li4 H4 S2 O10"
_cell_length_a       4.90399
_cell_length_b       5.555894000000001
_cell_length_c       8.269645510084757
_cell_angle_alpha    72.8917451750904
_cell_angle_beta     90.0
_cell_angle_gamma    90.0

_space_group_name_H-M_alt    "P 1"
_space_group_IT_number       1

loop_
  _space_group_symop_operation_xyz
  'x, y, z'

loop_
  _atom_site_type_symbol
  _atom_site_label
  _atom_site_symmetry_multiplicity
  _atom_site_fract_x
  _atom_site_fract_y
  _atom_site_fract_z
  _atom_site_occupancy
  Li  Li1       1.0  0.30436723632737994  0.4788195891305804  0.08578646345995367  1.0000
  Li  Li2       1.0  0.9371195249259472  0.8643404843751341  0.33222155924886465  1.0000
  Li  Li3       1.0  0.7528689598548226  0.06564024812541902  0.047814850229769945  1.0000
  Li  Li4       1.0  0.07844580430537462  0.053499006913625635  0.0990593305323273  1.0000
  H   H1        1.0  0.3664648272097111  0.4944754494354129  0.7206679871305823  1.0000
  H   H2        1.0  0.7710803916270379  0.5776384696364403  0.7702765492722392  1.0000
  H   H3        1.0  0.14394840504974127  0.03350420668721199  0.6250525070063304  1.0000
  H   H4        1.0  0.5837922028731555  0.07804553443565965  0.4195609325543046  1.0000
  S   S1        1.0  0.7271762322634459  0.6761548779904842  0.21322992211207747  1.0000
  S   S2        1.0  0.07119122667063493  0.3434758003568277  0.0044806841760873795  1.0000
  O   O1        1.0  0.07538339123129845  0.3108977896044962  0.30055925488704816  1.0000
  O   O2        1.0  0.37516397098079324  0.9453570767363999  0.9038416161201894  1.0000
  O   O3        1.0  0.7479402963072062  0.8428154680877924  0.7944476897828281  1.0000
  O   O4        1.0  0.2249678507214412  0.03481893287971616  0.030067766027059406  1.0000
  O   O5        1.0  0.41781166999135166  0.7354510164877865  0.04727041581645608  1.0000
  O   O6        1.0  0.9127835063263774  0.4091603441629559  0.7438823860138655  1.0000
  O   O7        1.0  0.44964068778790534  0.39859212457668036  0.17395310231950134  1.0000
  O   O8        1.0  0.7672255826182663  0.17812817252706736  0.7595882127061486  1.0000
  O   O9        1.0  0.8299999171867967  0.9915076184552163  0.25864815787645057  1.0000
  O   O10       1.0  0.7749515045434237  0.11324701213743538  0.3577550136251375  1.0000
data_image145
_chemical_formula_structural       Li4H4S2O10
_chemical_formula_sum              "Li4 H4 S2 O10"
_cell_length_a       4.90399
_cell_length_b       5.555894000000001
_cell_length_c       8.269645510084757
_cell_angle_alpha    72.8917451750904
_cell_angle_beta     90.0
_cell_angle_gamma    90.0

_space_group_name_H-M_alt    "P 1"
_space_group_IT_number       1

loop_
  _space_group_symop_operation_xyz
  'x, y, z'

loop_
  _atom_site_type_symbol
  _atom_site_label
  _atom_site_symmetry_multiplicity
  _atom_site_fract_x
  _atom_site_fract_y
  _atom_site_fract_z
  _atom_site_occupancy
  Li  Li1       1.0  0.4217224852181971  0.1189972636057064  0.6689499062485993  1.0000
  Li  Li2       1.0  0.6345798335969448  0.21316862432286143  0.3847839431837201  1.0000
  Li  Li3       1.0  0.24852412966720294  0.1132483163382858  0.40538325905799866  1.0000
  Li  Li4       1.0  0.05819028802216053  0.7170391206163913  0.7580724533181638  1.0000
  H   H1        1.0  0.9334889966994524  0.894611669704318  0.30455594090744853  1.0000
  H   H2        1.0  0.8750325519358739  0.7206954411230981  0.1495329758618027  1.0000
  H   H3        1.0  0.019919419661164284  0.4217740334570408  0.959240573371062  1.0000
  H   H4        1.0  0.5578003483824432  0.5142025710083544  0.9917290015146136  1.0000
  S   S1        1.0  0.24888439010828733  0.5809411162044853  0.7780203597503714  1.0000
  S   S2        1.0  0.5050990645540878  0.8659256463870406  0.810761486645788  1.0000
  O   O1        1.0  0.18189784744754434  0.48767028260044754  0.2956177005544305  1.0000
  O   O2        1.0  0.1040217587724328  0.8878242760838475  0.22562919452320784  1.0000
  O   O3        1.0  0.05778390448540449  0.8539681399706751  0.41540542175062  1.0000
  O   O4        1.0  0.3603532937122509  0.14097037725150585  0.38927451777271926  1.0000
  O   O5        1.0  0.41957360226660967  0.8128412587393541  0.9900905776303262  1.0000
  O   O6        1.0  0.9352182508446276  0.23078160942532122  0.5760402656160295  1.0000
  O   O7        1.0  0.5379544154275209  0.03700628461956512  0.7064656544243917  1.0000
  O   O8        1.0  0.7784229009412229  0.08559673407580703  0.8861878643510863  1.0000
  O   O9        1.0  0.8604432642459869  0.41724791727028787  0.17174472453189082  1.0000
  O   O10       1.0  0.8140821410343051  0.6787019626935944  0.7822125923121348  1.0000
data_image146
_chemical_formula_structural       Li4H4S2O10
_chemical_formula_sum              "Li4 H4 S2 O10"
_cell_length_a       4.90399
_cell_length_b       5.555894000000001
_cell_length_c       8.269645510084757
_cell_angle_alpha    72.8917451750904
_cell_angle_beta     90.0
_cell_angle_gamma    90.0

_space_group_name_H-M_alt    "P 1"
_space_group_IT_number       1

loop_
  _space_group_symop_operation_xyz
  'x, y, z'

loop_
  _atom_site_type_symbol
  _atom_site_label
  _atom_site_symmetry_multiplicity
  _atom_site_fract_x
  _atom_site_fract_y
  _atom_site_fract_z
  _atom_site_occupancy
  Li  Li1       1.0  0.8518388080410659  0.8367422036826611  0.3130661800969392  1.0000
  Li  Li2       1.0  0.8379723466932774  0.7453285763040185  0.25968519505113363  1.0000
  Li  Li3       1.0  0.5269641588165541  0.7742877302225679  0.48264049692079425  1.0000
  Li  Li4       1.0  0.16282490361481905  0.9187582505765022  0.3008299758657813  1.0000
  H   H1        1.0  0.7707235869020224  0.547291649505496  0.1338772983290255  1.0000
  H   H2        1.0  0.9434654614306055  0.5031026965007186  0.03288764483295381  1.0000
  H   H3        1.0  0.19678230118006468  0.16264677420258522  0.4607776468328666  1.0000
  H   H4        1.0  0.595212661428377  0.7537309159524739  0.8139967210590839  1.0000
  S   S1        1.0  0.3094741366803646  0.5446240012533963  0.15678505832329392  1.0000
  S   S2        1.0  0.3690994447679259  0.1946192382602021  0.8238365098368376  1.0000
  O   O1        1.0  0.4688583533279598  0.7281298047164455  0.7074464047327638  1.0000
  O   O2        1.0  0.1763054863549769  0.9518689386895858  0.7941703655524179  1.0000
  O   O3        1.0  0.39349312894046307  0.514612268190831  0.37618175987154245  1.0000
  O   O4        1.0  0.8687372357817367  0.7564890796784312  0.9268451795214787  1.0000
  O   O5        1.0  0.2107341153314337  0.9065473405644298  0.5715200115228072  1.0000
  O   O6        1.0  0.403289798181504  0.28550666407682  0.2935607060790062  1.0000
  O   O7        1.0  0.3710168974939734  0.2309013729391154  0.8953240402042866  1.0000
  O   O8        1.0  0.7805603286251426  0.5970455799251795  0.6970204315148294  1.0000
  O   O9        1.0  0.34242669958621264  0.04079136298969388  0.1396494526125025  1.0000
  O   O10       1.0  0.6110212914645672  0.8875983551843092  0.9491564029594883  1.0000
data_image147
_chemical_formula_structural       Li4H4S2O10
_chemical_formula_sum              "Li4 H4 S2 O10"
_cell_length_a       4.90399
_cell_length_b       5.555894000000001
_cell_length_c       8.269645510084757
_cell_angle_alpha    72.8917451750904
_cell_angle_beta     90.0
_cell_angle_gamma    90.0

_space_group_name_H-M_alt    "P 1"
_space_group_IT_number       1

loop_
  _space_group_symop_operation_xyz
  'x, y, z'

loop_
  _atom_site_type_symbol
  _atom_site_label
  _atom_site_symmetry_multiplicity
  _atom_site_fract_x
  _atom_site_fract_y
  _atom_site_fract_z
  _atom_site_occupancy
  Li  Li1       1.0  0.5515312091447413  0.3847427482251078  0.6490993092302233  1.0000
  Li  Li2       1.0  0.2052454575896263  0.14757814421318471  0.5365140186622739  1.0000
  Li  Li3       1.0  0.6233863887755433  0.734422629699111  0.5236452901735902  1.0000
  Li  Li4       1.0  0.5181307625025511  0.6181466242705937  0.21289315726608038  1.0000
  H   H1        1.0  0.32605816051363945  0.8190141902305186  0.29666460817679763  1.0000
  H   H2        1.0  0.9932361429091543  0.9537819069810212  0.729118431918323  1.0000
  H   H3        1.0  0.24874607380479574  0.294192424044013  0.3279982488893438  1.0000
  H   H4        1.0  0.09596274420619011  0.20385175663977861  0.02325104270130396  1.0000
  S   S1        1.0  0.018527913372963667  0.3151526781730354  0.5161302355700172  1.0000
  S   S2        1.0  0.24078248348087072  0.3891938184387982  0.3247728403657675  1.0000
  O   O1        1.0  0.9640200631693006  0.3450516100274399  0.2411027691559866  1.0000
  O   O2        1.0  0.5207895254716277  0.9587686483864672  0.0835228554205969  1.0000
  O   O3        1.0  0.21389523148536682  0.32738617225550115  0.21995272603817284  1.0000
  O   O4        1.0  0.4334744057850912  0.9412584695965052  0.8763933046720922  1.0000
  O   O5        1.0  0.1729020968778059  0.0013657443050760776  0.7801672202767804  1.0000
  O   O6        1.0  0.6312745115719736  0.8370367318857461  0.3155154762789607  1.0000
  O   O7        1.0  0.9047125352080911  0.9959065967123024  0.21319489495363086  1.0000
  O   O8        1.0  0.8673448115587234  0.9063959708437324  0.8621237576007843  1.0000
  O   O9        1.0  0.303485369309783  0.524185840273276  0.9674529648327734  1.0000
  O   O10       1.0  0.3566095158457756  0.43764403846580535  0.7429522755555809  1.0000
data_image148
_chemical_formula_structural       Li4H4S2O10
_chemical_formula_sum              "Li4 H4 S2 O10"
_cell_length_a       4.90399
_cell_length_b       5.555894000000001
_cell_length_c       8.269645510084757
_cell_angle_alpha    72.8917451750904
_cell_angle_beta     90.0
_cell_angle_gamma    90.0

_space_group_name_H-M_alt    "P 1"
_space_group_IT_number       1

loop_
  _space_group_symop_operation_xyz
  'x, y, z'

loop_
  _atom_site_type_symbol
  _atom_site_label
  _atom_site_symmetry_multiplicity
  _atom_site_fract_x
  _atom_site_fract_y
  _atom_site_fract_z
  _atom_site_occupancy
  Li  Li1       1.0  0.4466606555506587  0.6077791320858523  0.32265169941820204  1.0000
  Li  Li2       1.0  0.6064166314899921  0.16880728607065976  0.803933709859848  1.0000
  Li  Li3       1.0  0.4950193016848061  0.6980473240837455  0.18102270737290382  1.0000
  Li  Li4       1.0  0.32833031844347715  0.4408792472931964  0.7326595445629209  1.0000
  H   H1        1.0  0.2083467487245798  0.37863698322325945  0.8879981278441846  1.0000
  H   H2        1.0  0.3186984175845282  0.7595255649648607  0.3468908180948347  1.0000
  H   H3        1.0  0.02425209153443575  0.7067895065993071  0.35675621568225324  1.0000
  H   H4        1.0  0.10822567879222333  0.5882981764152646  0.41100876219570637  1.0000
  S   S1        1.0  0.9331934284418821  0.7384824056643993  0.2975972671411  1.0000
  S   S2        1.0  0.7028660454670899  0.8862579504493624  0.7717946812044829  1.0000
  O   O1        1.0  0.8169869533739984  0.8123369060922414  0.6487293737009168  1.0000
  O   O2        1.0  0.8990690214559436  0.9826656806399114  0.10615176137071103  1.0000
  O   O3        1.0  0.24228649633005261  0.2740456878673285  0.0755769177339971  1.0000
  O   O4        1.0  0.8191951791523024  0.33475747099146247  0.5023766920203343  1.0000
  O   O5        1.0  0.28774246550165117  0.026343609089963138  0.37705575965810567  1.0000
  O   O6        1.0  0.028515553567558527  0.3527880434412509  0.02224888000637293  1.0000
  O   O7        1.0  0.10203443141654134  0.05628029344370589  0.3597981696948409  1.0000
  O   O8        1.0  0.749838718213141  0.4721217204350978  0.44159004953689873  1.0000
  O   O9        1.0  0.3179161921143532  0.8827261857222766  0.9187833004398271  1.0000
  O   O10       1.0  0.809545136988163  0.5973845385015011  0.417449175613001  1.0000
data_image149
_chemical_formula_structural       Li4H4S2O10
_chemical_formula_sum              "Li4 H4 S2 O10"
_cell_length_a       4.90399
_cell_length_b       5.555894000000001
_cell_length_c       8.269645510084757
_cell_angle_alpha    72.8917451750904
_cell_angle_beta     90.0
_cell_angle_gamma    90.0

_space_group_name_H-M_alt    "P 1"
_space_group_IT_number       1

loop_
  _space_group_symop_operation_xyz
  'x, y, z'

loop_
  _atom_site_type_symbol
  _atom_site_label
  _atom_site_symmetry_multiplicity
  _atom_site_fract_x
  _atom_site_fract_y
  _atom_site_fract_z
  _atom_site_occupancy
  Li  Li1       1.0  0.40832051448524  0.5002549043856561  0.3767534310463816  1.0000
  Li  Li2       1.0  0.5461301915347576  0.9062095566187054  0.04471808858215809  1.0000
  Li  Li3       1.0  0.9303975743241608  0.8737470249179751  0.5526426061987877  1.0000
  Li  Li4       1.0  0.8663068618625402  0.5391328263431205  0.8790644891560078  1.0000
  H   H1        1.0  0.4648887012153864  0.6422588312998414  0.38972515519708395  1.0000
  H   H2        1.0  0.8162952443090035  0.04769124137237668  0.5790352986659855  1.0000
  H   H3        1.0  0.1165907010436058  0.9442908354103565  0.8006081314233597  1.0000
  H   H4        1.0  0.43766589812003076  0.5023948824964464  0.6983866393566132  1.0000
  S   S1        1.0  0.27521713729947805  0.5641901276540011  0.5850944238482043  1.0000
  S   S2        1.0  0.5205851445498411  0.35076867998577654  0.2238499498926103  1.0000
  O   O1        1.0  0.49349792674183846  0.7551392667228356  0.49813648813869804  1.0000
  O   O2        1.0  0.3141008666716516  0.7781457305536605  0.0015587076777592301  1.0000
  O   O3        1.0  0.35835655499249697  0.31282701320014894  0.141047780867666  1.0000
  O   O4        1.0  0.19554128998424858  0.9184173850808293  0.42673437704797834  1.0000
  O   O5        1.0  0.4576407199492678  0.9114455355156679  0.49878058512695134  1.0000
  O   O6        1.0  0.028892314061522484  0.0664794105105102  0.9330977252684534  1.0000
  O   O7        1.0  0.5654866357799619  0.01063589018303901  0.331084749661386  1.0000
  O   O8        1.0  0.9814018313772976  0.996999891824089  0.2632890319218859  1.0000
  O   O9        1.0  0.3919774480164051  0.021908970316872  0.8767892652540468  1.0000
  O   O10       1.0  0.24915173184126616  0.0160905224038288  0.8613476668251678  1.0000
data_image150
_chemical_formula_structural       Li4H4S2O10
_chemical_formula_sum              "Li4 H4 S2 O10"
_cell_length_a       4.90399
_cell_length_b       5.555894000000001
_cell_length_c       8.269645510084757
_cell_angle_alpha    72.8917451750904
_cell_angle_beta     90.0
_cell_angle_gamma    90.0

_space_group_name_H-M_alt    "P 1"
_space_group_IT_number       1

loop_
  _space_group_symop_operation_xyz
  'x, y, z'

loop_
  _atom_site_type_symbol
  _atom_site_label
  _atom_site_symmetry_multiplicity
  _atom_site_fract_x
  _atom_site_fract_y
  _atom_site_fract_z
  _atom_site_occupancy
  Li  Li1       1.0  0.8912663883529603  0.6015663163270801  0.7951294369995594  1.0000
  Li  Li2       1.0  0.29144586995244026  0.6426263267640024  0.5660540703684092  1.0000
  Li  Li3       1.0  0.5863314984162571  0.027663107495754957  0.06846257485449314  1.0000
  Li  Li4       1.0  0.83156574703753  0.520822243852308  0.5916988381650299  1.0000
  H   H1        1.0  0.5272680511698127  0.9583835452795029  0.29510903218761086  1.0000
  H   H2        1.0  0.12682992368354462  0.06585272401571274  0.4136238244827837  1.0000
  H   H3        1.0  0.16396839823573828  0.6972259897738695  0.7556799900776241  1.0000
  H   H4        1.0  0.5202482421882451  0.7249428727664053  0.5354490904137492  1.0000
  S   S1        1.0  0.644360194914043  0.17686812090687454  0.5271779003669508  1.0000
  S   S2        1.0  0.22220089068287052  0.9286061227321625  0.4197158741299063  1.0000
  O   O1        1.0  0.4763241526670754  0.9594126606825739  0.6691772961057723  1.0000
  O   O2        1.0  0.371435116045177  0.4649899252108298  0.6935312460409477  1.0000
  O   O3        1.0  0.5023849862627685  0.14569655386731029  0.4684676129836589  1.0000
  O   O4        1.0  0.8200027936254628  0.08950050757266581  0.7238116641528904  1.0000
  O   O5        1.0  0.7014805356739089  0.41052576949005015  0.3678272638935596  1.0000
  O   O6        1.0  0.694376380648464  0.744642136618495  0.2541471188887954  1.0000
  O   O7        1.0  0.5945856950711459  0.5398952383548021  0.9961068338016048  1.0000
  O   O8        1.0  0.4135976913385093  0.08631316316314042  0.18001943064155057  1.0000
  O   O9        1.0  0.38931247498840094  0.7981241859961301  0.7401261450722814  1.0000
  O   O10       1.0  0.4601866574957967  0.3142181654693559  0.94765295390971  1.0000
data_image151
_chemical_formula_structural       Li4H4S2O10
_chemical_formula_sum              "Li4 H4 S2 O10"
_cell_length_a       4.90399
_cell_length_b       5.555894000000001
_cell_length_c       8.269645510084757
_cell_angle_alpha    72.8917451750904
_cell_angle_beta     90.0
_cell_angle_gamma    90.0

_space_group_name_H-M_alt    "P 1"
_space_group_IT_number       1

loop_
  _space_group_symop_operation_xyz
  'x, y, z'

loop_
  _atom_site_type_symbol
  _atom_site_label
  _atom_site_symmetry_multiplicity
  _atom_site_fract_x
  _atom_site_fract_y
  _atom_site_fract_z
  _atom_site_occupancy
  Li  Li1       1.0  0.8836668240837753  0.4560160959372297  0.6555935153737664  1.0000
  Li  Li2       1.0  0.18741801008582115  0.14277076977305114  0.3019127044826746  1.0000
  Li  Li3       1.0  0.3765905093459878  0.08890260476619005  0.16518561635166407  1.0000
  Li  Li4       1.0  0.5081324419006705  0.24363025825005025  0.2006990066729486  1.0000
  H   H1        1.0  0.46781490556895733  0.42954863235354424  0.5924113430082798  1.0000
  H   H2        1.0  0.07202966412296519  0.33941251691430807  0.6342793665826321  1.0000
  H   H3        1.0  0.2339660283178091  0.9784617461264133  0.961559614574071  1.0000
  H   H4        1.0  0.694628823781386  0.06700376234948635  0.6945427656173706  1.0000
  S   S1        1.0  0.4793547634035349  0.1252248997334391  0.38799994555301964  1.0000
  S   S2        1.0  0.79749794935924  0.011301804101094604  0.5134142637252808  1.0000
  O   O1        1.0  0.5013821916654706  0.4621363708283752  0.6001064779702574  1.0000
  O   O2        1.0  0.13214092794805765  0.2999964476766763  0.37988023285288364  1.0000
  O   O3        1.0  0.7390232956968248  0.743632426019758  0.12455750163644552  1.0000
  O   O4        1.0  0.3799896518466994  0.06061267643235624  0.8143758891383186  1.0000
  O   O5        1.0  0.44203686073888093  0.12784931572969072  0.9921395143028349  1.0000
  O   O6        1.0  0.9243428814224899  0.10624842531979084  0.3042836096137762  1.0000
  O   O7        1.0  0.8640376932453364  0.7369252488715574  0.6828898334642872  1.0000
  O   O8        1.0  0.7631016396917403  0.8689085374353454  0.6198575868620537  1.0000
  O   O9        1.0  0.978230251930654  0.24968307418748736  0.1106277858489193  1.0000
  O   O10       1.0  0.2196548543870449  0.2473416537977755  0.9273509841877967  1.0000
data_image152
_chemical_formula_structural       Li4H4S2O10
_chemical_formula_sum              "Li4 H4 S2 O10"
_cell_length_a       4.90399
_cell_length_b       5.555894000000001
_cell_length_c       8.269645510084757
_cell_angle_alpha    72.8917451750904
_cell_angle_beta     90.0
_cell_angle_gamma    90.0

_space_group_name_H-M_alt    "P 1"
_space_group_IT_number       1

loop_
  _space_group_symop_operation_xyz
  'x, y, z'

loop_
  _atom_site_type_symbol
  _atom_site_label
  _atom_site_symmetry_multiplicity
  _atom_site_fract_x
  _atom_site_fract_y
  _atom_site_fract_z
  _atom_site_occupancy
  Li  Li1       1.0  0.22484686691313982  0.5844548494787887  0.9328142434824258  1.0000
  Li  Li2       1.0  0.8424520716071129  0.6267403766978532  0.4347890317440033  1.0000
  Li  Li3       1.0  0.533970744421822  0.10438007721677423  0.46199322678148746  1.0000
  Li  Li4       1.0  0.7928944826126099  0.22143267845967785  0.8464426954742521  1.0000
  H   H1        1.0  0.2146137421950698  0.6472185365855694  0.8316670060157776  1.0000
  H   H2        1.0  0.624248792999424  0.5129011571407318  0.01673100795596838  1.0000
  H   H3        1.0  0.4011131376028061  0.006980106234550476  0.2722267198842019  1.0000
  H   H4        1.0  0.5733454534783959  0.6237722295336425  0.4109259806573391  1.0000
  S   S1        1.0  0.5966106094419956  0.9470432023517787  0.9035873741086107  1.0000
  S   S2        1.0  0.9237360827391967  0.41764211817644536  0.0760867481585592  1.0000
  O   O1        1.0  0.9598094895482063  0.55856960976962  0.2634490553755313  1.0000
  O   O2        1.0  0.36837404407560825  0.22001862511388026  0.6119371993700042  1.0000
  O   O3        1.0  0.5956622124649584  0.7955518579110503  0.6515187355689704  1.0000
  O   O4        1.0  0.7690000213915482  0.31452126195654273  0.23363046266604215  1.0000
  O   O5        1.0  0.7547879833145998  0.6554478340840433  0.9942543380893767  1.0000
  O   O6        1.0  0.7468148143962026  0.4461521366611123  0.21381831541657448  1.0000
  O   O7        1.0  0.06943041551858187  0.6117947098100558  0.9328804814722389  1.0000
  O   O8        1.0  0.5275379330851138  0.05002214573323727  0.8946509451488964  1.0000
  O   O9        1.0  0.8933586161583662  0.4211845255922526  0.9551468153949827  1.0000
  O   O10       1.0  0.4071232946589589  0.03913405863568187  0.13638950942549855  1.0000
data_image153
_chemical_formula_structural       Li4H4S2O10
_chemical_formula_sum              "Li4 H4 S2 O10"
_cell_length_a       4.90399
_cell_length_b       5.555894000000001
_cell_length_c       8.269645510084757
_cell_angle_alpha    72.8917451750904
_cell_angle_beta     90.0
_cell_angle_gamma    90.0

_space_group_name_H-M_alt    "P 1"
_space_group_IT_number       1

loop_
  _space_group_symop_operation_xyz
  'x, y, z'

loop_
  _atom_site_type_symbol
  _atom_site_label
  _atom_site_symmetry_multiplicity
  _atom_site_fract_x
  _atom_site_fract_y
  _atom_site_fract_z
  _atom_site_occupancy
  Li  Li1       1.0  0.9122550413012505  0.746122885029763  0.35715845646336675  1.0000
  Li  Li2       1.0  0.9164469260722399  0.4997284314595163  0.031202342361211777  1.0000
  Li  Li3       1.0  0.5073235606687376  0.930932684103027  0.7087647384032607  1.0000
  Li  Li4       1.0  0.3799493396654725  0.1691073349211365  0.97529870364815  1.0000
  H   H1        1.0  0.022089658305048943  0.882990856654942  0.5642117639072239  1.0000
  H   H2        1.0  0.18498738191556185  0.9172053281217813  0.28102321177721024  1.0000
  H   H3        1.0  0.1903252862393856  0.9404583871364594  0.6487649548507761  1.0000
  H   H4        1.0  0.1306064643431455  0.8962498209439218  0.5490245698019862  1.0000
  S   S1        1.0  0.06993711926043034  0.9580269122961909  0.3305329547729343  1.0000
  S   S2        1.0  0.7517080214311136  0.6219148735981435  0.28595894016325474  1.0000
  O   O1        1.0  0.5156151736155152  0.39065539778675884  0.5280441489303485  1.0000
  O   O2        1.0  0.05037933401763439  0.7694691943470389  0.5649818638339639  1.0000
  O   O3        1.0  0.7870607757940888  0.4105451332870871  0.311313072219491  1.0000
  O   O4        1.0  0.541935013665352  0.9994569290429354  0.9114758603973314  1.0000
  O   O5        1.0  0.9900496487971395  0.7156614475243259  0.1563233456108719  1.0000
  O   O6        1.0  0.13586761709302664  0.6576251585502177  0.4434747560881078  1.0000
  O   O7        1.0  0.8015502819325775  0.7664661097805947  0.1743568623205647  1.0000
  O   O8        1.0  0.01664268597960472  0.9214216608088464  0.972483534598723  1.0000
  O   O9        1.0  0.0804532440379262  0.6554320983123034  0.2547062674420886  1.0000
  O   O10       1.0  0.8076213151216507  0.9431083967210725  0.11404024774674326  1.0000
data_image154
_chemical_formula_structural       Li4H4S2O10
_chemical_formula_sum              "Li4 H4 S2 O10"
_cell_length_a       4.90399
_cell_length_b       5.555894000000001
_cell_length_c       8.269645510084757
_cell_angle_alpha    72.8917451750904
_cell_angle_beta     90.0
_cell_angle_gamma    90.0

_space_group_name_H-M_alt    "P 1"
_space_group_IT_number       1

loop_
  _space_group_symop_operation_xyz
  'x, y, z'

loop_
  _atom_site_type_symbol
  _atom_site_label
  _atom_site_symmetry_multiplicity
  _atom_site_fract_x
  _atom_site_fract_y
  _atom_site_fract_z
  _atom_site_occupancy
  Li  Li1       1.0  0.3900231965817511  0.4448613083222881  0.7689434718340635  1.0000
  Li  Li2       1.0  0.9233634918928146  0.8088670503348112  0.39581428561359644  1.0000
  Li  Li3       1.0  0.2812786759604933  0.6487529666628689  0.7668874389491975  1.0000
  Li  Li4       1.0  0.20381670538336039  0.12033865810371935  0.7329291021451354  1.0000
  H   H1        1.0  0.26003505289554596  0.559020564891398  0.908846138510853  1.0000
  H   H2        1.0  0.39324016438331455  0.934483930002898  0.7062361410353333  1.0000
  H   H3        1.0  0.007242828607559204  0.041485901921987534  0.8875075219548307  1.0000
  H   H4        1.0  0.9548006940167397  0.6502923578955233  0.45090924575924873  1.0000
  S   S1        1.0  0.09482111455872655  0.5101726050488651  0.6588348822842818  1.0000
  S   S2        1.0  0.14996651743422262  0.5082762190140784  0.2918288402725011  1.0000
  O   O1        1.0  0.1652550739236176  0.9834535896079615  0.9185782892163843  1.0000
  O   O2        1.0  0.8857750725001097  0.7772052140207961  0.27634453121572733  1.0000
  O   O3        1.0  0.22787901712581515  0.15479638800024986  0.03563904599286616  1.0000
  O   O4        1.0  0.1397505992790684  0.23542132647708058  0.13359530526213348  1.0000
  O   O5        1.0  0.041032330540474504  0.25005197431892157  0.48974935861770064  1.0000
  O   O6        1.0  0.3000356866978109  0.2294416327495128  0.5464768838137388  1.0000
  O   O7        1.0  0.6080709199886769  0.3923414567252621  0.49959313427098095  1.0000
  O   O8        1.0  0.9929699460044503  0.5691314563155174  0.9450025814585388  1.0000
  O   O9        1.0  0.7505846843123436  0.08868965599685907  0.7652656313439365  1.0000
  O   O10       1.0  0.00014441367238759995  0.865073410095647  0.17987843707669526  1.0000
data_image155
_chemical_formula_structural       Li4H4S2O10
_chemical_formula_sum              "Li4 H4 S2 O10"
_cell_length_a       4.90399
_cell_length_b       5.555894000000001
_cell_length_c       8.269645510084757
_cell_angle_alpha    72.8917451750904
_cell_angle_beta     90.0
_cell_angle_gamma    90.0

_space_group_name_H-M_alt    "P 1"
_space_group_IT_number       1

loop_
  _space_group_symop_operation_xyz
  'x, y, z'

loop_
  _atom_site_type_symbol
  _atom_site_label
  _atom_site_symmetry_multiplicity
  _atom_site_fract_x
  _atom_site_fract_y
  _atom_site_fract_z
  _atom_site_occupancy
  Li  Li1       1.0  0.8912603044882417  0.19362976890988648  0.024810845963656902  1.0000
  Li  Li2       1.0  0.42047423869371414  0.039054597495123744  0.5700314501300454  1.0000
  Li  Li3       1.0  0.4231605538225267  0.09114278526976705  0.6079476363956928  1.0000
  Li  Li4       1.0  0.5215144138783216  0.1899898186675273  0.6068109045736492  1.0000
  H   H1        1.0  0.6101947845891118  0.24720984511077404  0.32036944758147  1.0000
  H   H2        1.0  0.3880542565602809  0.92134874407202  0.3495133677497506  1.0000
  H   H3        1.0  0.559693525545299  0.8086089789867401  0.5659161049698014  1.0000
  H   H4        1.0  0.27194795035757124  0.492755563929677  0.8733744341880083  1.0000
  S   S1        1.0  0.9083100906573236  0.12290553166531026  0.059887908631935716  1.0000
  S   S2        1.0  0.04580054566031322  0.638981721480377  0.21620297385379672  1.0000
  O   O1        1.0  0.4771283804439008  0.7436890830285847  0.4230816263007  1.0000
  O   O2        1.0  0.43949592765420675  0.5491260247072205  0.9953454379574396  1.0000
  O   O3        1.0  0.3537476137280464  0.0976344735827297  0.4430772755295038  1.0000
  O   O4        1.0  0.05952038458781317  0.46537804254330695  0.7362237657071091  1.0000
  O   O5        1.0  0.7561549232341349  0.7127674463554285  0.8378324335208163  1.0000
  O   O6        1.0  0.5437926766462624  0.6256232985761017  0.02446223283186555  1.0000
  O   O7        1.0  0.9751273829024285  0.624147116439417  0.8075432964833453  1.0000
  O   O8        1.0  0.6384410047903657  0.006242258008569479  0.14316972438246012  1.0000
  O   O9        1.0  0.040348359383642673  0.9886455507948995  0.1452604178339243  1.0000
  O   O10       1.0  0.4570936746895313  0.5518717402592301  0.7794423718005419  1.0000
data_image156
_chemical_formula_structural       Li4H4S2O10
_chemical_formula_sum              "Li4 H4 S2 O10"
_cell_length_a       4.90399
_cell_length_b       5.555894000000001
_cell_length_c       8.269645510084757
_cell_angle_alpha    72.8917451750904
_cell_angle_beta     90.0
_cell_angle_gamma    90.0

_space_group_name_H-M_alt    "P 1"
_space_group_IT_number       1

loop_
  _space_group_symop_operation_xyz
  'x, y, z'

loop_
  _atom_site_type_symbol
  _atom_site_label
  _atom_site_symmetry_multiplicity
  _atom_site_fract_x
  _atom_site_fract_y
  _atom_site_fract_z
  _atom_site_occupancy
  Li  Li1       1.0  0.03236417379230261  0.09312956442590803  0.8478385887574404  1.0000
  Li  Li2       1.0  0.7470017243176699  0.07979275798425078  0.5317846508696675  1.0000
  Li  Li3       1.0  0.35485687511391006  0.8440904405433685  0.6306487563997507  1.0000
  Li  Li4       1.0  0.49272772017866373  0.38035183656029403  0.5114526362158358  1.0000
  H   H1        1.0  0.491662816144526  0.11062009539455175  0.1601824345998466  1.0000
  H   H2        1.0  0.36385789420455694  0.3027126984670758  0.031715815188363194  1.0000
  H   H3        1.0  0.6564574502408504  0.3531335685402155  0.9299549106508493  1.0000
  H   H4        1.0  0.6936646092217416  0.2206203662790358  0.21765439491719007  1.0000
  S   S1        1.0  0.39546734280884266  0.014922341797500849  0.5509558916673996  1.0000
  S   S2        1.0  0.19981163885677233  0.30998732487205416  0.2805837760679424  1.0000
  O   O1        1.0  0.1365649658255279  0.2729686062084511  0.928371197427623  1.0000
  O   O2        1.0  0.7275293469429016  0.010580330737866461  0.9701824804069474  1.0000
  O   O3        1.0  0.807254436891526  0.5285204441752285  0.1353001247625798  1.0000
  O   O4        1.0  0.06778212985955179  0.4887806554324925  0.6283065050374717  1.0000
  O   O5        1.0  0.799749800178688  0.9928338280296884  0.9949662103317678  1.0000
  O   O6        1.0  0.608810824342072  0.05557673051953316  0.36125713400542736  1.0000
  O   O7        1.0  0.1822466382291168  0.2367384957615286  0.39866278774570674  1.0000
  O   O8        1.0  0.4244674392975867  0.341155041125603  0.8596218888415024  1.0000
  O   O9        1.0  0.6650107027962804  0.39470402151346207  0.16455626975221094  1.0000
  O   O10       1.0  0.5383539209142327  0.06970808608457446  0.7395948121557012  1.0000
data_image157
_chemical_formula_structural       Li4H4S2O10
_chemical_formula_sum              "Li4 H4 S2 O10"
_cell_length_a       4.90399
_cell_length_b       5.555894000000001
_cell_length_c       8.269645510084757
_cell_angle_alpha    72.8917451750904
_cell_angle_beta     90.0
_cell_angle_gamma    90.0

_space_group_name_H-M_alt    "P 1"
_space_group_IT_number       1

loop_
  _space_group_symop_operation_xyz
  'x, y, z'

loop_
  _atom_site_type_symbol
  _atom_site_label
  _atom_site_symmetry_multiplicity
  _atom_site_fract_x
  _atom_site_fract_y
  _atom_site_fract_z
  _atom_site_occupancy
  Li  Li1       1.0  0.1533512957394123  0.29246802697889507  0.3294841223396361  1.0000
  Li  Li2       1.0  0.7734762374311686  0.8758881171233952  0.6478938609361649  1.0000
  Li  Li3       1.0  0.7095550073572667  0.8782667969353497  0.28943303134292364  1.0000
  Li  Li4       1.0  0.7565304832533002  0.9365224885987118  0.011254924582317472  1.0000
  H   H1        1.0  0.9393663145601749  0.727046549320221  0.763217500410974  1.0000
  H   H2        1.0  0.23900670651346445  0.3030477352440357  0.07474903925321996  1.0000
  H   H3        1.0  0.9254430253058672  0.47617253102362156  0.6639323019771837  1.0000
  H   H4        1.0  0.8882862057071179  0.42306131357327104  0.761768750846386  1.0000
  S   S1        1.0  0.6634215265512466  0.43313363566994667  0.5841395200695843  1.0000
  S   S2        1.0  0.9166629989049397  0.45242242724634707  0.6409328803420067  1.0000
  O   O1        1.0  0.021540228743106127  0.26341794908512384  0.4754750825231895  1.0000
  O   O2        1.0  0.5182474632747471  0.7150343803223222  0.35989820735994726  1.0000
  O   O3        1.0  0.9170504072681069  0.3300533378496766  0.6343112762551755  1.0000
  O   O4        1.0  0.9144265808281489  0.9170590015128255  0.6060631026048213  1.0000
  O   O5        1.0  0.4387389824842103  0.8859597954142373  0.36297971080057323  1.0000
  O   O6        1.0  0.10035429149866104  0.17925119935534894  0.7802261323668063  1.0000
  O   O7        1.0  0.11282809893600643  0.7384848485235125  0.7001967661781237  1.0000
  O   O8        1.0  0.6775858886539936  0.7434840443311259  0.9209954348625615  1.0000
  O   O9        1.0  0.969014904461801  0.6401334027759731  0.9624494688141567  1.0000
  O   O10       1.0  0.6813747333362699  0.3445587212918326  0.845003773458302  1.0000
data_image158
_chemical_formula_structural       Li4H4S2O10
_chemical_formula_sum              "Li4 H4 S2 O10"
_cell_length_a       4.90399
_cell_length_b       5.555894000000001
_cell_length_c       8.269645510084757
_cell_angle_alpha    72.8917451750904
_cell_angle_beta     90.0
_cell_angle_gamma    90.0

_space_group_name_H-M_alt    "P 1"
_space_group_IT_number       1

loop_
  _space_group_symop_operation_xyz
  'x, y, z'

loop_
  _atom_site_type_symbol
  _atom_site_label
  _atom_site_symmetry_multiplicity
  _atom_site_fract_x
  _atom_site_fract_y
  _atom_site_fract_z
  _atom_site_occupancy
  Li  Li1       1.0  0.6478563440032303  0.3026827637804672  0.3497708002105355  1.0000
  Li  Li2       1.0  0.964005958288908  0.6319370653945953  0.4796327333897352  1.0000
  Li  Li3       1.0  0.37918450571305584  0.21676880726590753  0.7695692088454962  1.0000
  Li  Li4       1.0  0.7489814665168524  0.944567983970046  0.027808237704448402  1.0000
  H   H1        1.0  0.2817754978314042  0.6575272940099239  0.2157376827672124  1.0000
  H   H2        1.0  0.5403178371489048  0.06432070583105087  0.5311534176580608  1.0000
  H   H3        1.0  0.3209510035812855  0.1600396540015936  0.6858976436196826  1.0000
  H   H4        1.0  0.5432787043973804  0.5993481050245464  0.3884185003116727  1.0000
  S   S1        1.0  0.19037872832268476  0.05157129489816725  0.7964636965771206  1.0000
  S   S2        1.0  0.6015453985019121  0.013933336944319308  0.3918909947387874  1.0000
  O   O1        1.0  0.8475251882337034  0.21396629768423736  0.1922488478012383  1.0000
  O   O2        1.0  0.16644275235012174  0.07123433030210435  0.08168402989394963  1.0000
  O   O3        1.0  0.6574843842536211  0.7231726765166968  0.23617345304228365  1.0000
  O   O4        1.0  0.49756971042370424  0.8598225130699575  0.5735796085791662  1.0000
  O   O5        1.0  0.9909521050285548  0.6520109960692935  0.4238719688728452  1.0000
  O   O6        1.0  0.5421423185616732  0.310335484566167  0.5506613976322114  1.0000
  O   O7        1.0  0.458152943989262  0.09959116333629936  0.5341404698556289  1.0000
  O   O8        1.0  0.7784403162077069  0.0252377389697358  0.632550822221674  1.0000
  O   O9        1.0  0.2627588678151369  0.9007920790463686  0.22099278725545446  1.0000
  O   O10       1.0  0.19661288894712925  0.24076989956665784  0.3989026745548472  1.0000
data_image159
_chemical_formula_structural       Li4H4S2O10
_chemical_formula_sum              "Li4 H4 S2 O10"
_cell_length_a       4.90399
_cell_length_b       5.555894000000001
_cell_length_c       8.269645510084757
_cell_angle_alpha    72.8917451750904
_cell_angle_beta     90.0
_cell_angle_gamma    90.0

_space_group_name_H-M_alt    "P 1"
_space_group_IT_number       1

loop_
  _space_group_symop_operation_xyz
  'x, y, z'

loop_
  _atom_site_type_symbol
  _atom_site_label
  _atom_site_symmetry_multiplicity
  _atom_site_fract_x
  _atom_site_fract_y
  _atom_site_fract_z
  _atom_site_occupancy
  Li  Li1       1.0  0.9917743224650621  0.15957980253733695  0.618040814762935  1.0000
  Li  Li2       1.0  0.8380311485379934  0.4449734187219292  0.25812873523682356  1.0000
  Li  Li3       1.0  0.5860652207629755  0.4177740225568414  0.9868804346770048  1.0000
  Li  Li4       1.0  0.5729345101863146  0.9461332599166781  0.9185961475595832  1.0000
  H   H1        1.0  0.04761255905032158  0.9611702309921384  0.23561829747632146  1.0000
  H   H2        1.0  0.609928728081286  0.9676832752302289  0.03510816371999681  1.0000
  H   H3        1.0  0.9542461633682251  0.1936546191573143  0.4123440571129322  1.0000
  H   H4        1.0  0.8447845033369958  0.1382120787166059  0.24572763685137033  1.0000
  S   S1        1.0  0.6023386418819427  0.9733581973705441  0.13578734447946772  1.0000
  S   S2        1.0  0.2562139950459823  0.462737183785066  0.58479497814551  1.0000
  O   O1        1.0  0.6695958212949336  0.6336225521517918  0.5223752699093893  1.0000
  O   O2        1.0  0.4682235145010054  0.9070238413987681  0.6181014006724581  1.0000
  O   O3        1.0  0.37755356216803193  0.4960619588382542  0.8889129888266325  1.0000
  O   O4        1.0  0.06673280557151884  0.3059137302916497  0.26075937203131616  1.0000
  O   O5        1.0  0.9019204538781196  0.8357895320223179  0.8758374557364732  1.0000
  O   O6        1.0  0.9002735926769674  0.576492358231917  0.4373715640977025  1.0000
  O   O7        1.0  0.8876373744569719  0.6438472482841462  0.08596331044100225  1.0000
  O   O8        1.0  0.5353294182568789  0.20273123611696064  0.4294228318030946  1.0000
  O   O9        1.0  0.2281970987096429  0.38363402150571346  0.5191595080113984  1.0000
  O   O10       1.0  0.2405154425650835  0.2391603369032964  0.3196714005898684  1.0000
data_image160
_chemical_formula_structural       Li4H4S2O10
_chemical_formula_sum              "Li4 H4 S2 O10"
_cell_length_a       4.90399
_cell_length_b       5.555894000000001
_cell_length_c       8.269645510084757
_cell_angle_alpha    72.8917451750904
_cell_angle_beta     90.0
_cell_angle_gamma    90.0

_space_group_name_H-M_alt    "P 1"
_space_group_IT_number       1

loop_
  _space_group_symop_operation_xyz
  'x, y, z'

loop_
  _atom_site_type_symbol
  _atom_site_label
  _atom_site_symmetry_multiplicity
  _atom_site_fract_x
  _atom_site_fract_y
  _atom_site_fract_z
  _atom_site_occupancy
  Li  Li1       1.0  0.8777869525365531  0.2159085760358721  0.82429114356637  1.0000
  Li  Li2       1.0  0.7730809226632118  0.9693031290080398  0.746238213032484  1.0000
  Li  Li3       1.0  0.9159863813983975  0.16161389579065144  0.4150598836131394  1.0000
  Li  Li4       1.0  0.1701757488772273  0.15539344702847302  0.2169109407113865  1.0000
  H   H1        1.0  0.33113402873277664  0.37667427863925695  0.226263458840549  1.0000
  H   H2        1.0  0.609227673150599  0.25565826892852783  0.3004033949691802  1.0000
  H   H3        1.0  0.399924517609179  0.016248909756541252  0.5042342788074166  1.0000
  H   H4        1.0  0.13356074434705079  0.9285496342927217  0.44153454899787903  1.0000
  S   S1        1.0  0.023170140106230974  0.5150642495136708  0.7458489885902964  1.0000
  S   S2        1.0  0.21933066545170732  0.7154066822258756  0.5186566947959363  1.0000
  O   O1        1.0  0.6263423524796963  0.6361303479643539  0.06334822450298816  1.0000
  O   O2        1.0  0.330643511377275  0.04814162151888013  0.7526191649376415  1.0000
  O   O3        1.0  0.13158840546384454  0.008812185609713197  0.39363016304560006  1.0000
  O   O4        1.0  0.11540624033659697  0.7937279203906655  0.5370461619459093  1.0000
  O   O5        1.0  0.5208254806348123  0.028988200094318017  0.500218840315938  1.0000
  O   O6        1.0  0.9908148436807096  0.7150190258398652  0.2788602695800364  1.0000
  O   O7        1.0  0.7381853873375803  0.04426172119565308  0.16840975487139076  1.0000
  O   O8        1.0  0.21649370016530156  0.5765457925153896  0.6754565789888147  1.0000
  O   O9        1.0  0.8082272540777922  0.42962082708254457  0.8304974561178824  1.0000
  O   O10       1.0  0.27050895150750875  0.5417855456471443  0.18347969569731504  1.0000
data_image161
_chemical_formula_structural       Li4H4S2O10
_chemical_formula_sum              "Li4 H4 S2 O10"
_cell_length_a       4.90399
_cell_length_b       5.555894000000001
_cell_length_c       8.269645510084757
_cell_angle_alpha    72.8917451750904
_cell_angle_beta     90.0
_cell_angle_gamma    90.0

_space_group_name_H-M_alt    "P 1"
_space_group_IT_number       1

loop_
  _space_group_symop_operation_xyz
  'x, y, z'

loop_
  _atom_site_type_symbol
  _atom_site_label
  _atom_site_symmetry_multiplicity
  _atom_site_fract_x
  _atom_site_fract_y
  _atom_site_fract_z
  _atom_site_occupancy
  Li  Li1       1.0  0.4575548293069005  0.780981206567958  0.35921748587861657  1.0000
  Li  Li2       1.0  0.07519798167049885  0.007086161291226745  0.8800135981291533  1.0000
  Li  Li3       1.0  0.5046555708977394  0.7781356933992356  0.6199716166593134  1.0000
  Li  Li4       1.0  0.22782236989587545  0.4218364937696606  0.5168757020728663  1.0000
  H   H1        1.0  0.31497972458601  0.45284953713417053  0.7706412100233138  1.0000
  H   H2        1.0  0.4674242492765188  0.5360815655440092  0.41396224731579423  1.0000
  H   H3        1.0  0.19520183093845844  0.527269683778286  0.8258518716320395  1.0000
  H   H4        1.0  0.9739451624918729  0.4176725475117564  0.9750824393704534  1.0000
  S   S1        1.0  0.1233021104708314  0.25042987265624106  0.5278393091575708  1.0000
  S   S2        1.0  0.43270548203145154  0.012539285351522267  0.33546815905719995  1.0000
  O   O1        1.0  0.4937175824306905  0.016136811464093626  0.06715884199365973  1.0000
  O   O2        1.0  0.5560725638642907  0.4329101099865511  0.13062395609449595  1.0000
  O   O3        1.0  0.5384444654919207  0.028965384932234883  0.6865931870415807  1.0000
  O   O4        1.0  0.014266079175285995  0.3562383078970015  0.18157066870480776  1.0000
  O   O5        1.0  0.8486611541593447  0.7952716013824102  0.8372354346793145  1.0000
  O   O6        1.0  0.5628866492770612  0.6309123120736331  0.18790850788354874  1.0000
  O   O7        1.0  0.6497749940026551  0.9978106721537188  0.25445212633349  1.0000
  O   O8        1.0  0.8133687735535204  0.10950593679444864  0.08418902475386858  1.0000
  O   O9        1.0  0.2933958740904927  0.8608437888324261  0.15515791167126736  1.0000
  O   O10       1.0  0.5530351931229234  0.7531756159150973  0.27966772380750626  1.0000
data_image162
_chemical_formula_structural       Li4H4S2O10
_chemical_formula_sum              "Li4 H4 S2 O10"
_cell_length_a       4.90399
_cell_length_b       5.555894000000001
_cell_length_c       8.269645510084757
_cell_angle_alpha    72.8917451750904
_cell_angle_beta     90.0
_cell_angle_gamma    90.0

_space_group_name_H-M_alt    "P 1"
_space_group_IT_number       1

loop_
  _space_group_symop_operation_xyz
  'x, y, z'

loop_
  _atom_site_type_symbol
  _atom_site_label
  _atom_site_symmetry_multiplicity
  _atom_site_fract_x
  _atom_site_fract_y
  _atom_site_fract_z
  _atom_site_occupancy
  Li  Li1       1.0  0.46097398130223155  0.6447808747179806  0.5254758056253195  1.0000
  Li  Li2       1.0  0.9279873985797167  0.5989392935298383  0.469087571837008  1.0000
  Li  Li3       1.0  0.952009898624965  0.1953414196614176  0.8748584133572876  1.0000
  Li  Li4       1.0  0.4736236846074462  0.2486224517924711  0.2530842046253383  1.0000
  H   H1        1.0  0.22674038633704185  0.2583579448983073  0.6817528074607253  1.0000
  H   H2        1.0  0.7158493739552796  0.7056317795068026  0.9415236283093691  1.0000
  H   H3        1.0  0.4401989346370101  0.9669528603553772  0.8456990380072966  1.0000
  H   H4        1.0  0.5300081023015082  0.41770813101902604  0.42420223355293274  1.0000
  S   S1        1.0  0.3421076056547463  0.9525161802303046  0.6683703804737888  1.0000
  S   S2        1.0  0.3951374532771297  0.5464476326014847  0.18427952844649553  1.0000
  O   O1        1.0  0.6731999013572931  0.8841192391701043  0.7637616437859833  1.0000
  O   O2        1.0  0.7841036831960082  0.4043077315436676  0.9341927388450131  1.0000
  O   O3        1.0  0.0763778667896986  0.3697985706385225  0.8959642399568111  1.0000
  O   O4        1.0  0.1362981441197917  0.8913352901581675  0.7296156852971762  1.0000
  O   O5        1.0  0.7577726385788992  0.9760849106824026  0.8774407661985606  1.0000
  O   O6        1.0  0.8217006805352867  0.9353492059744895  0.11154746916145086  1.0000
  O   O7        1.0  0.9616420860402286  0.5056315670954064  0.7208047835156322  1.0000
  O   O8        1.0  0.6155405160970986  0.8498555736732669  0.5047438071633223  1.0000
  O   O9        1.0  0.7020247476175427  0.8599246628582478  0.872281195675896  1.0000
  O   O10       1.0  0.8047665739431977  0.25011792150326073  0.8733930145390332  1.0000
data_image163
_chemical_formula_structural       Li4H4S2O10
_chemical_formula_sum              "Li4 H4 S2 O10"
_cell_length_a       4.90399
_cell_length_b       5.555894000000001
_cell_length_c       8.269645510084757
_cell_angle_alpha    72.8917451750904
_cell_angle_beta     90.0
_cell_angle_gamma    90.0

_space_group_name_H-M_alt    "P 1"
_space_group_IT_number       1

loop_
  _space_group_symop_operation_xyz
  'x, y, z'

loop_
  _atom_site_type_symbol
  _atom_site_label
  _atom_site_symmetry_multiplicity
  _atom_site_fract_x
  _atom_site_fract_y
  _atom_site_fract_z
  _atom_site_occupancy
  Li  Li1       1.0  0.44905297039076686  0.16046292427927256  0.9289327496662736  1.0000
  Li  Li2       1.0  0.5755399148911238  0.028040585573762655  0.3070609485730529  1.0000
  Li  Li3       1.0  0.16806536504009273  0.9087013241369277  0.35694723948836327  1.0000
  Li  Li4       1.0  0.7460282435640693  0.05513785616494715  0.1525056471582502  1.0000
  H   H1        1.0  0.691989753395319  0.41069760639220476  0.5732779335230589  1.0000
  H   H2        1.0  0.7929983898065984  0.8594819554127753  0.3480051209917292  1.0000
  H   H3        1.0  0.5022781621664762  0.04705401510000229  0.40001863357611  1.0000
  H   H4        1.0  0.16268175235018134  0.6350090829655528  0.43941998947411776  1.0000
  S   S1        1.0  0.24732521316036582  0.7333935941569507  0.9464642298989929  1.0000
  S   S2        1.0  0.7337622343038674  0.8835797735955566  0.1397873186506331  1.0000
  O   O1        1.0  0.1707147192209959  0.5648140815319493  0.10105423675850034  1.0000
  O   O2        1.0  0.06873398693278432  0.09698696876876056  0.5224148833658546  1.0000
  O   O3        1.0  0.7915284615010023  0.14234695048071444  0.9295837264508009  1.0000
  O   O4        1.0  0.2750451456522569  0.06581790745258331  0.7315408242866397  1.0000
  O   O5        1.0  0.6361497041070834  0.31597369408700615  0.9733414388028905  1.0000
  O   O6        1.0  0.03640933986753225  0.8357176429126412  0.32982740039005876  1.0000
  O   O7        1.0  0.5764599558897316  0.19454355700872838  0.403307102387771  1.0000
  O   O8        1.0  0.7092373613268137  0.4942327564349398  0.3586266427882947  1.0000
  O   O9        1.0  0.16253752820193768  0.6882985420525074  0.9718094611889683  1.0000
  O   O10       1.0  0.4217371493577957  0.8461240797769278  0.9340828683925793  1.0000
data_image164
_chemical_formula_structural       Li4H4S2O10
_chemical_formula_sum              "Li4 H4 S2 O10"
_cell_length_a       4.90399
_cell_length_b       5.555894000000001
_cell_length_c       8.269645510084757
_cell_angle_alpha    72.8917451750904
_cell_angle_beta     90.0
_cell_angle_gamma    90.0

_space_group_name_H-M_alt    "P 1"
_space_group_IT_number       1

loop_
  _space_group_symop_operation_xyz
  'x, y, z'

loop_
  _atom_site_type_symbol
  _atom_site_label
  _atom_site_symmetry_multiplicity
  _atom_site_fract_x
  _atom_site_fract_y
  _atom_site_fract_z
  _atom_site_occupancy
  Li  Li1       1.0  0.038811863865703344  0.6764769882429391  0.5470793410204351  1.0000
  Li  Li2       1.0  0.384267371147871  0.8625841012690216  0.90262311976403  1.0000
  Li  Li3       1.0  0.5729471411177656  0.49375144741497934  0.06870224932208657  1.0000
  Li  Li4       1.0  0.2926343623548746  0.7797667030245066  0.9968597140396014  1.0000
  H   H1        1.0  0.5309839444234967  0.35037070605903864  0.23949450254440308  1.0000
  H   H2        1.0  0.8015351691283286  0.403993824031204  0.7303673916030675  1.0000
  H   H3        1.0  0.7157854465767741  0.7794929016381502  0.631021730019711  1.0000
  H   H4        1.0  0.502951217116788  0.2929348452016711  0.16546320728957653  1.0000
  S   S1        1.0  0.6248987368308008  0.9055035577621311  0.5619946885562968  1.0000
  S   S2        1.0  0.5943006973247975  0.2771408496191725  0.5142855318263173  1.0000
  O   O1        1.0  0.5441575162112713  0.8578758254880086  0.5862287799827754  1.0000
  O   O2        1.0  0.6023616320453584  0.0753774072509259  0.3789270936977118  1.0000
  O   O3        1.0  0.06659908732399344  0.7516654740320519  0.5792350324336439  1.0000
  O   O4        1.0  0.5946514420793392  0.9427032365929335  0.08094288094434887  1.0000
  O   O5        1.0  0.47621839365456253  0.9941094551468268  0.7491716323420405  1.0000
  O   O6        1.0  0.8951038010418415  0.7328323107212782  0.2791778654791415  1.0000
  O   O7        1.0  0.957798533141613  0.8464614585973322  0.8870545924874023  1.0000
  O   O8        1.0  0.6384443226270378  0.1759562996448949  0.7254955118405633  1.0000
  O   O9        1.0  0.021470309235155582  0.3073471626266837  0.7850887125823647  1.0000
  O   O10       1.0  0.7525757113471627  0.7568464529467747  0.5754377589328215  1.0000
data_image165
_chemical_formula_structural       Li4H4S2O10
_chemical_formula_sum              "Li4 H4 S2 O10"
_cell_length_a       4.90399
_cell_length_b       5.555894000000001
_cell_length_c       8.269645510084757
_cell_angle_alpha    72.8917451750904
_cell_angle_beta     90.0
_cell_angle_gamma    90.0

_space_group_name_H-M_alt    "P 1"
_space_group_IT_number       1

loop_
  _space_group_symop_operation_xyz
  'x, y, z'

loop_
  _atom_site_type_symbol
  _atom_site_label
  _atom_site_symmetry_multiplicity
  _atom_site_fract_x
  _atom_site_fract_y
  _atom_site_fract_z
  _atom_site_occupancy
  Li  Li1       1.0  0.6007314561866224  0.5264222479891032  0.5072401813231409  1.0000
  Li  Li2       1.0  0.00022595003247261047  0.2136645708233118  0.3507630731910467  1.0000
  Li  Li3       1.0  0.3665393731207587  0.5357308166567236  0.04934872221201658  1.0000
  Li  Li4       1.0  0.4342595674097538  0.4632252751616761  0.5455209001665935  1.0000
  H   H1        1.0  0.5209373729303479  0.644530426710844  0.05335139576345682  1.0000
  H   H2        1.0  0.8164506019093096  0.962648066226393  0.31808926595840603  1.0000
  H   H3        1.0  0.4755328316241503  0.6072374768555164  0.9717852773610502  1.0000
  H   H4        1.0  0.044090276351198554  0.06367767183110118  0.10860573314130306  1.0000
  S   S1        1.0  0.0009615002200007439  0.45157311763614416  0.08939173023100011  1.0000
  S   S2        1.0  0.12536183805787005  0.57419929059688  0.9028949965722859  1.0000
  O   O1        1.0  0.24282641243189573  0.17162524268496782  0.672505043912679  1.0000
  O   O2        1.0  0.9595551462844014  0.08562484313733876  0.23941086925333366  1.0000
  O   O3        1.0  0.7422974514774978  0.7938700660597533  0.9150792970322073  1.0000
  O   O4        1.0  0.6129587256000377  0.3175642394926399  0.3641013623564504  1.0000
  O   O5        1.0  0.9857726194895804  0.5045265011722222  0.26395607832819223  1.0000
  O   O6        1.0  0.8537943651899695  0.7647055156994611  0.23261491442099214  1.0000
  O   O7        1.0  0.34413600573316216  0.9487807129044086  0.618844889337197  1.0000
  O   O8        1.0  0.5011436785571277  0.8598332955734804  0.16751500684767962  1.0000
  O   O9        1.0  0.5751594547182322  0.23018465004861355  0.9068422467680648  1.0000
  O   O10       1.0  0.9133763751015067  0.36734554497525096  0.5450627289246768  1.0000
data_image166
_chemical_formula_structural       Li4H4S2O10
_chemical_formula_sum              "Li4 H4 S2 O10"
_cell_length_a       4.90399
_cell_length_b       5.555894000000001
_cell_length_c       8.269645510084757
_cell_angle_alpha    72.8917451750904
_cell_angle_beta     90.0
_cell_angle_gamma    90.0

_space_group_name_H-M_alt    "P 1"
_space_group_IT_number       1

loop_
  _space_group_symop_operation_xyz
  'x, y, z'

loop_
  _atom_site_type_symbol
  _atom_site_label
  _atom_site_symmetry_multiplicity
  _atom_site_fract_x
  _atom_site_fract_y
  _atom_site_fract_z
  _atom_site_occupancy
  Li  Li1       1.0  0.5409832876175642  0.623599473387003  0.27294202125631273  1.0000
  Li  Li2       1.0  0.7430952228605747  0.38126844936050475  0.6027459856122732  1.0000
  Li  Li3       1.0  0.5726737659424543  0.24065748299472034  0.2739311996847391  1.0000
  Li  Li4       1.0  0.15322687663137913  0.3404931256081909  0.05334420129656792  1.0000
  H   H1        1.0  0.5928688058629632  0.07602451089769602  0.16372886020690203  1.0000
  H   H2        1.0  0.3482801013160497  0.7112593236379325  0.021456107147969306  1.0000
  H   H3        1.0  0.979640762321651  0.10529940202832222  0.2888768588891253  1.0000
  H   H4        1.0  0.42588295065797865  0.7419369840063155  0.8225876996293664  1.0000
  S   S1        1.0  0.21614078525453806  0.7472408881876618  0.05493335719802417  1.0000
  S   S2        1.0  0.6045796377875376  0.8880465739639476  0.6838013115338981  1.0000
  O   O1        1.0  0.10338405473157763  0.7906830088468269  0.7322462247684598  1.0000
  O   O2        1.0  0.3686733231879771  0.9899123469367623  0.9869850077666342  1.0000
  O   O3        1.0  0.6815722561441362  0.7985914292512462  0.2748283452820033  1.0000
  O   O4        1.0  0.8437518477148842  0.5068701992277056  0.40178334509255365  1.0000
  O   O5        1.0  0.25346191658172756  0.3107565214158967  0.7166185065871105  1.0000
  O   O6        1.0  0.5035685542970896  0.013032068498432636  0.3928761030547321  1.0000
  O   O7        1.0  0.3776344279758632  0.4167947383248247  0.474454298382625  1.0000
  O   O8        1.0  0.4877720461227  0.38736890791915357  0.5018432150827721  1.0000
  O   O9        1.0  0.3166609965264797  0.1814859197475016  0.5761717976129148  1.0000
  O   O10       1.0  0.2940241489559412  0.988401856389828  0.7654389403760433  1.0000
data_image167
_chemical_formula_structural       Li4H4S2O10
_chemical_formula_sum              "Li4 H4 S2 O10"
_cell_length_a       4.90399
_cell_length_b       5.555894000000001
_cell_length_c       8.269645510084757
_cell_angle_alpha    72.8917451750904
_cell_angle_beta     90.0
_cell_angle_gamma    90.0

_space_group_name_H-M_alt    "P 1"
_space_group_IT_number       1

loop_
  _space_group_symop_operation_xyz
  'x, y, z'

loop_
  _atom_site_type_symbol
  _atom_site_label
  _atom_site_symmetry_multiplicity
  _atom_site_fract_x
  _atom_site_fract_y
  _atom_site_fract_z
  _atom_site_occupancy
  Li  Li1       1.0  0.6452782992273569  0.9137432321440428  0.497503001941368  1.0000
  Li  Li2       1.0  0.13855640590190887  0.3169366791844368  0.2877838872373104  1.0000
  Li  Li3       1.0  0.9342769854702055  0.28292125300504267  0.9592565922066569  1.0000
  Li  Li4       1.0  0.45840718131512403  0.41969951521605253  0.6659987638704479  1.0000
  H   H1        1.0  0.6578491935506463  0.7178921429440379  0.9486454664729536  1.0000
  H   H2        1.0  0.8006063438951969  0.15920044016093016  0.3280733171850443  1.0000
  H   H3        1.0  0.8167195385321975  0.5756651554256678  0.15512720681726933  1.0000
  H   H4        1.0  0.7758604327682406  0.933756070677191  0.8143021045252681  1.0000
  S   S1        1.0  0.32476404402405024  0.6292866026051342  0.39545966012519784  1.0000
  S   S2        1.0  0.5945889307477046  0.44754083279985934  0.7999999201856554  1.0000
  O   O1        1.0  0.6499122343957424  0.44909439177718014  0.9385842464398593  1.0000
  O   O2        1.0  0.9739202014170587  0.4081621883669868  0.18355994747253135  1.0000
  O   O3        1.0  0.9471284314058721  0.38173166068736464  0.21459048124961555  1.0000
  O   O4        1.0  0.4040701183548663  0.27998235332779586  0.9028568115900271  1.0000
  O   O5        1.0  0.2918531245086342  0.3314525947207585  0.811055323923938  1.0000
  O   O6        1.0  0.4896201374940574  0.41015349817462265  0.7059865156188607  1.0000
  O   O7        1.0  0.039868268417194486  0.18793841724982485  0.4041021028533578  1.0000
  O   O8        1.0  0.7731912136077881  0.9631566114258021  0.6228088677744381  1.0000
  O   O9        1.0  0.6156803732737899  0.8534185457974672  0.8334516954055289  1.0000
  O   O10       1.0  0.8839640161022544  0.8545529617695138  0.6342059856979176  1.0000
data_image168
_chemical_formula_structural       Li4H4S2O10
_chemical_formula_sum              "Li4 H4 S2 O10"
_cell_length_a       4.90399
_cell_length_b       5.555894000000001
_cell_length_c       8.269645510084757
_cell_angle_alpha    72.8917451750904
_cell_angle_beta     90.0
_cell_angle_gamma    90.0

_space_group_name_H-M_alt    "P 1"
_space_group_IT_number       1

loop_
  _space_group_symop_operation_xyz
  'x, y, z'

loop_
  _atom_site_type_symbol
  _atom_site_label
  _atom_site_symmetry_multiplicity
  _atom_site_fract_x
  _atom_site_fract_y
  _atom_site_fract_z
  _atom_site_occupancy
  Li  Li1       1.0  0.5073762936517596  0.06815128703601658  0.6418851162306964  1.0000
  Li  Li2       1.0  0.3092973232269287  0.9567626069765538  0.20902951434254646  1.0000
  Li  Li3       1.0  0.398330717056524  0.17155189625918865  0.6576530844904482  1.0000
  Li  Li4       1.0  0.9563239831477404  0.5317157779354602  0.7601245391415432  1.0000
  H   H1        1.0  0.011405828408896923  0.3204282158985734  0.6719073010608554  1.0000
  H   H2        1.0  0.5663949381560087  0.898008749820292  0.7511408990249038  1.0000
  H   H3        1.0  0.7557347798720002  0.8305279426276684  0.2105613910825923  1.0000
  H   H4        1.0  0.7195505746640265  0.5084583973512053  0.6588831832632422  1.0000
  S   S1        1.0  0.2511241394095123  0.8208103596698493  0.6164846475294326  1.0000
  S   S2        1.0  0.6417801325442269  0.8928506808588281  0.4100916909519583  1.0000
  O   O1        1.0  0.36426240345463157  0.5522026715334505  0.09766182512976229  1.0000
  O   O2        1.0  0.5791620048694313  0.5110350970644504  0.1703159405151382  1.0000
  O   O3        1.0  0.08648860594257712  0.27413015137426555  0.9279771912842989  1.0000
  O   O4        1.0  0.3582872891856823  0.5074899299070239  0.9508319543674588  1.0000
  O   O5        1.0  0.9040932118659839  0.15514946746407077  0.04626699036452919  1.0000
  O   O6        1.0  0.2591936942189932  0.8355013418477029  0.3028444559313357  1.0000
  O   O7        1.0  0.6131114338058978  0.2925563328026328  0.3402068834984675  1.0000
  O   O8        1.0  0.7635158663615584  0.8285961786750704  0.9503589654923417  1.0000
  O   O9        1.0  0.6667062258347869  0.4788215938024223  0.5323245096806204  1.0000
  O   O10       1.0  0.21391912456601858  0.9318930458975956  0.8625885605579242  1.0000
data_image169
_chemical_formula_structural       Li4H4S2O10
_chemical_formula_sum              "Li4 H4 S2 O10"
_cell_length_a       4.90399
_cell_length_b       5.555894000000001
_cell_length_c       8.269645510084757
_cell_angle_alpha    72.8917451750904
_cell_angle_beta     90.0
_cell_angle_gamma    90.0

_space_group_name_H-M_alt    "P 1"
_space_group_IT_number       1

loop_
  _space_group_symop_operation_xyz
  'x, y, z'

loop_
  _atom_site_type_symbol
  _atom_site_label
  _atom_site_symmetry_multiplicity
  _atom_site_fract_x
  _atom_site_fract_y
  _atom_site_fract_z
  _atom_site_occupancy
  Li  Li1       1.0  0.31573009211570024  0.3364076502621174  0.3258344123605639  1.0000
  Li  Li2       1.0  0.9284122847020626  0.7976734675467014  0.08334573823958635  1.0000
  Li  Li3       1.0  0.6429687672643922  0.048259053844958544  0.6674024350941181  1.0000
  Li  Li4       1.0  0.6873836610466242  0.4792651932220906  0.2282855095108971  1.0000
  H   H1        1.0  0.2051572697237134  0.8615418896079063  0.15067632216960192  1.0000
  H   H2        1.0  0.1253798482939601  0.22940527368336916  0.3082643346861005  1.0000
  H   H3        1.0  0.7108038645237684  0.29924990236759186  0.37931700982153416  1.0000
  H   H4        1.0  0.31336433719843626  0.3730281931348145  0.9481530357152224  1.0000
  S   S1        1.0  0.7756969053298235  0.029884181916713715  0.23550072172656655  1.0000
  S   S2        1.0  0.5878895940259099  0.4493447958957404  0.06021958123892546  1.0000
  O   O1        1.0  0.47849663626402617  0.6972628035582602  0.6763466231059283  1.0000
  O   O2        1.0  0.5781181724742055  0.1363388370955363  0.9680350216804072  1.0000
  O   O3        1.0  0.3435593396425247  0.8605226333020255  0.369305346859619  1.0000
  O   O4        1.0  0.906650247372454  0.34162932238541543  0.9800209713284858  1.0000
  O   O5        1.0  0.16672245506197214  0.3033445096225478  0.9736092900857329  1.0000
  O   O6        1.0  0.17999132303521037  0.5316829164512455  0.5007498869672418  1.0000
  O   O7        1.0  0.6583520600106567  0.47085187677294016  0.061814617831259966  1.0000
  O   O8        1.0  0.8517123758792877  0.24707523093093187  0.01676506269723177  1.0000
  O   O9        1.0  0.9882841696962714  0.573901011608541  0.9508952221658546  1.0000
  O   O10       1.0  0.0446904469281435  0.2176082688383758  0.41589896415825933  1.0000
data_image170
_chemical_formula_structural       Li4H4S2O10
_chemical_formula_sum              "Li4 H4 S2 O10"
_cell_length_a       4.90399
_cell_length_b       5.555894000000001
_cell_length_c       8.269645510084757
_cell_angle_alpha    72.8917451750904
_cell_angle_beta     90.0
_cell_angle_gamma    90.0

_space_group_name_H-M_alt    "P 1"
_space_group_IT_number       1

loop_
  _space_group_symop_operation_xyz
  'x, y, z'

loop_
  _atom_site_type_symbol
  _atom_site_label
  _atom_site_symmetry_multiplicity
  _atom_site_fract_x
  _atom_site_fract_y
  _atom_site_fract_z
  _atom_site_occupancy
  Li  Li1       1.0  0.38908350840210915  0.7796153984963894  0.923272579908371  1.0000
  Li  Li2       1.0  0.9089540280401707  0.3877799594774842  0.8900770330801606  1.0000
  Li  Li3       1.0  0.6438762344187126  0.0379130570217967  0.8375003333203495  1.0000
  Li  Li4       1.0  0.07765601668506861  0.8582020434550941  0.303326295921579  1.0000
  H   H1        1.0  0.25773317739367485  0.7973976423963904  0.2831392763182521  1.0000
  H   H2        1.0  0.7507029930129647  0.1248655617237091  0.8675126456655562  1.0000
  H   H3        1.0  0.017096922732889652  0.2277236096560955  0.9079753514379263  1.0000
  H   H4        1.0  0.08551547676324844  0.10752863110974431  0.5156894363462925  1.0000
  S   S1        1.0  0.49402356473729014  0.3244018086697906  0.9747058226057561  1.0000
  S   S2        1.0  0.450434257654706  0.02893237245734781  0.319721772801131  1.0000
  O   O1        1.0  0.7936404412612319  0.7013373824302107  0.6999534703791142  1.0000
  O   O2        1.0  0.545771096367389  0.5152317989850417  0.8432748147752136  1.0000
  O   O3        1.0  0.8131423550657928  0.3852983743418008  0.0075847371481359005  1.0000
  O   O4        1.0  0.18838848581071943  0.7675503729842603  0.48341353883733973  1.0000
  O   O5        1.0  0.777542814379558  0.7265849991235882  0.7417347774608061  1.0000
  O   O6        1.0  0.2951104664243758  0.5337223212700337  0.028465539682656527  1.0000
  O   O7        1.0  0.8951587439514697  0.6439780218643136  0.8973962757736444  1.0000
  O   O8        1.0  0.34251420153304935  0.16809579881373793  0.3524322427692823  1.0000
  O   O9        1.0  0.7269159443676472  0.6176562337204814  0.6304851734021213  1.0000
  O   O10       1.0  0.31176840886473656  0.921110400930047  0.4724486767081544  1.0000
data_image171
_chemical_formula_structural       Li4H4S2O10
_chemical_formula_sum              "Li4 H4 S2 O10"
_cell_length_a       4.90399
_cell_length_b       5.555894000000001
_cell_length_c       8.269645510084757
_cell_angle_alpha    72.8917451750904
_cell_angle_beta     90.0
_cell_angle_gamma    90.0

_space_group_name_H-M_alt    "P 1"
_space_group_IT_number       1

loop_
  _space_group_symop_operation_xyz
  'x, y, z'

loop_
  _atom_site_type_symbol
  _atom_site_label
  _atom_site_symmetry_multiplicity
  _atom_site_fract_x
  _atom_site_fract_y
  _atom_site_fract_z
  _atom_site_occupancy
  Li  Li1       1.0  0.5845112795941532  0.986597437877208  0.010358755709603429  1.0000
  Li  Li2       1.0  0.5128387063741684  0.5979741448536515  0.26293762028217316  1.0000
  Li  Li3       1.0  0.26948273222660646  0.9419969029258937  0.8732453784905374  1.0000
  Li  Li4       1.0  0.11354451905936003  0.8070275487843901  0.01105171034578234  1.0000
  H   H1        1.0  0.2580081904307008  0.38549753092229366  0.6070889662951231  1.0000
  H   H2        1.0  0.21871653851121664  0.8988925814628601  0.02975616417825222  1.0000
  H   H3        1.0  0.46676549408584833  0.8474134393036366  0.5504341180203483  1.0000
  H   H4        1.0  0.8661984035279602  0.3697734954766929  0.7032168908044696  1.0000
  S   S1        1.0  0.4678000849671662  0.01766882324591279  0.6113519970240304  1.0000
  S   S2        1.0  0.6620539562427439  0.02961308555677533  0.5488929562270641  1.0000
  O   O1        1.0  0.5446693073026836  0.1379397368291393  0.26580436644144356  1.0000
  O   O2        1.0  0.7564903451129794  0.9549443492433056  0.4964702779543586  1.0000
  O   O3        1.0  0.7486572917550802  0.6247788520995528  0.23358639352954924  1.0000
  O   O4        1.0  0.6525567421631422  0.895210069604218  0.5365131182479672  1.0000
  O   O5        1.0  0.7014378315070644  0.09740570309804752  0.7888886096188799  1.0000
  O   O6        1.0  0.3799169361591339  0.7359211496077478  0.3216261831112206  1.0000
  O   O7        1.0  0.41293025529012084  0.7951881039771251  0.8784351578215137  1.0000
  O   O8        1.0  0.9434111067093909  0.9205236957641318  0.6239776223083027  1.0000
  O   O9        1.0  0.24435228388756514  0.8506425269879401  0.4694512690184638  1.0000
  O   O10       1.0  0.3736288473010063  0.18354016344528645  0.23167777701746672  1.0000
data_image172
_chemical_formula_structural       Li4H4S2O10
_chemical_formula_sum              "Li4 H4 S2 O10"
_cell_length_a       4.90399
_cell_length_b       5.555894000000001
_cell_length_c       8.269645510084757
_cell_angle_alpha    72.8917451750904
_cell_angle_beta     90.0
_cell_angle_gamma    90.0

_space_group_name_H-M_alt    "P 1"
_space_group_IT_number       1

loop_
  _space_group_symop_operation_xyz
  'x, y, z'

loop_
  _atom_site_type_symbol
  _atom_site_label
  _atom_site_symmetry_multiplicity
  _atom_site_fract_x
  _atom_site_fract_y
  _atom_site_fract_z
  _atom_site_occupancy
  Li  Li1       1.0  0.7344477865844965  0.9986352699343115  0.15564949251711369  1.0000
  Li  Li2       1.0  0.30475541949272156  0.9677757737226784  0.06305238697677851  1.0000
  Li  Li3       1.0  0.48272726050345227  0.37765592499636114  0.6825799322687089  1.0000
  Li  Li4       1.0  0.3967338716611266  0.8823035752866417  0.19007595616858453  1.0000
  H   H1        1.0  0.47457386553287506  0.8049939330667257  0.9850147943943739  1.0000
  H   H2        1.0  0.40120958164334297  0.9556031944230199  0.9441651680972427  1.0000
  H   H3        1.0  0.7352473298087716  0.37560515105724335  0.6514876451110467  1.0000
  H   H4        1.0  0.9551768752280623  0.5132109792903066  0.6904804529622197  1.0000
  S   S1        1.0  0.21999100781977177  0.06453989655710757  0.668716586093069  1.0000
  S   S2        1.0  0.7059212407912128  0.2620382278691977  0.25389660196378827  1.0000
  O   O1        1.0  0.27888434287160635  0.32564744900446385  0.7035831357352436  1.0000
  O   O2        1.0  0.12347825337201357  0.43839768471661955  0.17996274848701432  1.0000
  O   O3        1.0  0.9353120313026011  0.21383622428402305  0.3575701757799834  1.0000
  O   O4        1.0  0.8409418785886373  0.9268719658721238  0.5798835966270417  1.0000
  O   O5        1.0  0.8440485019236803  0.9919777385657653  0.49093176214955747  1.0000
  O   O6        1.0  0.6660663522779942  0.6928134204354137  0.5648703337647021  1.0000
  O   O7        1.0  0.1873640778940171  0.601502931502182  0.33892401482444257  1.0000
  O   O8        1.0  0.7669577412307262  0.7220931783085689  0.08037356956629083  1.0000
  O   O9        1.0  0.34370318707078695  0.11683329613879323  0.1451014718040824  1.0000
  O   O10       1.0  0.9756040116772056  0.951204776763916  0.7031932509271428  1.0000
data_image173
_chemical_formula_structural       Li4H4S2O10
_chemical_formula_sum              "Li4 H4 S2 O10"
_cell_length_a       4.90399
_cell_length_b       5.555894000000001
_cell_length_c       8.269645510084757
_cell_angle_alpha    72.8917451750904
_cell_angle_beta     90.0
_cell_angle_gamma    90.0

_space_group_name_H-M_alt    "P 1"
_space_group_IT_number       1

loop_
  _space_group_symop_operation_xyz
  'x, y, z'

loop_
  _atom_site_type_symbol
  _atom_site_label
  _atom_site_symmetry_multiplicity
  _atom_site_fract_x
  _atom_site_fract_y
  _atom_site_fract_z
  _atom_site_occupancy
  Li  Li1       1.0  0.12838205648586154  0.8656864303629845  0.18789565027691424  1.0000
  Li  Li2       1.0  0.43669451773166656  0.3114576134830713  0.061951094307005405  1.0000
  Li  Li3       1.0  0.35369174723746255  0.0021118640433996916  0.6679425118491054  1.0000
  Li  Li4       1.0  0.8652316397055984  0.2306934961816296  0.042644240660592914  1.0000
  H   H1        1.0  0.2615390345454216  0.41822454426437616  0.7998535512015224  1.0000
  H   H2        1.0  0.10016771964728832  0.516958262771368  0.39114723703823984  1.0000
  H   H3        1.0  0.16695644706487656  0.6926806289702654  0.860469561885111  1.0000
  H   H4        1.0  0.49015081813558936  0.38991784071549773  0.9004568019881845  1.0000
  S   S1        1.0  0.9265071349218488  0.12122873542830348  0.21469332084234338  1.0000
  S   S2        1.0  0.22715251130284742  0.761096486414317  0.7147442102432251  1.0000
  O   O1        1.0  0.96200946951285  0.4494057683041319  0.5215745661407709  1.0000
  O   O2        1.0  0.38292071782052517  0.693986106547527  0.9127193676540628  1.0000
  O   O3        1.0  0.901087025180459  0.6691900017904118  0.36583763477392495  1.0000
  O   O4        1.0  0.1098791882977821  0.8281661989167333  0.5855446238419972  1.0000
  O   O5        1.0  0.5495902145048603  0.053117669303901494  0.38501745427493006  1.0000
  O   O6        1.0  0.6876784185878932  0.40104280784726143  0.21505041839554906  1.0000
  O   O7        1.0  0.15257535548880696  0.6284135561727453  0.6552912447368726  1.0000
  O   O8        1.0  0.35467880917713046  0.22143222950398922  0.012258165574166924  1.0000
  O   O9        1.0  0.24174264166504145  0.7269604336470366  0.6972614539554343  1.0000
  O   O10       1.0  0.19038571789860725  0.03335472207982093  0.19799317058641464  1.0000
data_image174
_chemical_formula_structural       Li4H4S2O10
_chemical_formula_sum              "Li4 H4 S2 O10"
_cell_length_a       4.90399
_cell_length_b       5.555894000000001
_cell_length_c       8.269645510084757
_cell_angle_alpha    72.8917451750904
_cell_angle_beta     90.0
_cell_angle_gamma    90.0

_space_group_name_H-M_alt    "P 1"
_space_group_IT_number       1

loop_
  _space_group_symop_operation_xyz
  'x, y, z'

loop_
  _atom_site_type_symbol
  _atom_site_label
  _atom_site_symmetry_multiplicity
  _atom_site_fract_x
  _atom_site_fract_y
  _atom_site_fract_z
  _atom_site_occupancy
  Li  Li1       1.0  0.047111861407756805  0.5517314723692834  0.48788579693064094  1.0000
  Li  Li2       1.0  0.3004356361925602  0.9547469727694988  0.7204995984211564  1.0000
  Li  Li3       1.0  0.6762939434847794  0.9085238261613995  0.6654231906868517  1.0000
  Li  Li4       1.0  0.6655970793217421  0.43096825282555073  0.6697518464643508  1.0000
  H   H1        1.0  0.1177898459136486  0.5666097057983279  0.1873980602249503  1.0000
  H   H2        1.0  0.5870674327015877  0.6686232490465045  0.824589752824977  1.0000
  H   H3        1.0  0.3064097259193659  0.6004238221794367  0.46803317917510867  1.0000
  H   H4        1.0  0.1787634938955307  0.122527991887182  0.9991349773481488  1.0000
  S   S1        1.0  0.23166515678167343  0.20261316164396703  0.8265797192725586  1.0000
  S   S2        1.0  0.35698261129437014  0.23920927266590297  0.8557717967778444  1.0000
  O   O1        1.0  0.0730275334790349  0.10336325131356716  0.9236588238272816  1.0000
  O   O2        1.0  0.993816927075386  0.9189293388044462  0.8156146373949014  1.0000
  O   O3        1.0  0.24110923381522298  0.5095257279463112  0.7495197551324964  1.0000
  O   O4        1.0  0.8035184748587199  0.6587012326344848  0.12870202993508428  1.0000
  O   O5        1.0  0.3608219788875431  0.9190841438248754  0.5546235410729423  1.0000
  O   O6        1.0  0.5715709733776748  0.7525922146160156  0.36615823535248637  1.0000
  O   O7        1.0  0.22570748929865658  0.8418753115111031  0.5024163039634004  1.0000
  O   O8        1.0  0.6800623531453311  0.04493625077884644  0.22563347039977089  1.0000
  O   O9        1.0  0.7859450168907642  0.6636360674165189  0.8046050639532041  1.0000
  O   O10       1.0  0.3917655721306801  0.48341404437087476  0.6233429114799947  1.0000
data_image175
_chemical_formula_structural       Li4H4S2O10
_chemical_formula_sum              "Li4 H4 S2 O10"
_cell_length_a       4.90399
_cell_length_b       5.555894000000001
_cell_length_c       8.269645510084757
_cell_angle_alpha    72.8917451750904
_cell_angle_beta     90.0
_cell_angle_gamma    90.0

_space_group_name_H-M_alt    "P 1"
_space_group_IT_number       1

loop_
  _space_group_symop_operation_xyz
  'x, y, z'

loop_
  _atom_site_type_symbol
  _atom_site_label
  _atom_site_symmetry_multiplicity
  _atom_site_fract_x
  _atom_site_fract_y
  _atom_site_fract_z
  _atom_site_occupancy
  Li  Li1       1.0  0.7547823830973357  0.7736449000658467  0.06839649053290486  1.0000
  Li  Li2       1.0  0.7841196060180664  0.09412011969834566  0.8231306355446577  1.0000
  Li  Li3       1.0  0.8421753000584431  0.4617017670534551  0.2654165527783334  1.0000
  Li  Li4       1.0  0.8562969379127026  0.5715535221388564  0.623945071711205  1.0000
  H   H1        1.0  0.9121666252613068  0.8789637554436922  0.2974317935295403  1.0000
  H   H2        1.0  0.9060710174962878  0.4992255112156272  0.9789841203019023  1.0000
  H   H3        1.0  0.853637388907373  0.8918150421231985  0.17956541094463319  1.0000
  H   H4        1.0  0.9732102886773646  0.9119295855052769  0.685373458545655  1.0000
  S   S1        1.0  0.5783396479673684  0.6663764419499785  0.5069917310174787  1.0000
  S   S2        1.0  0.06052288814680651  0.408204328850843  0.9444291735999286  1.0000
  O   O1        1.0  0.5689420872367918  0.7962303023086861  0.10991031373851001  1.0000
  O   O2        1.0  0.3177685169503093  0.9681666870601475  0.06066322227707133  1.0000
  O   O3        1.0  0.3647487140260637  0.22461791441310197  0.8527435075957328  1.0000
  O   O4        1.0  0.2149137161904946  0.056844200706109405  0.2615458911168389  1.0000
  O   O5        1.0  0.2977350897854194  0.033451197028625757  0.6186486092628911  1.0000
  O   O6        1.0  0.686729044187814  0.8990783032495528  0.1214856505393982  1.0000
  O   O7        1.0  0.6982269908767194  0.19296127269626595  0.2961804452352226  1.0000
  O   O8        1.0  0.44152934942394495  0.47362498682923615  0.48733879369683564  1.0000
  O   O9        1.0  0.10371142532676458  0.641246800776571  0.20055704447440803  1.0000
  O   O10       1.0  0.8883034018799663  0.05402899510227144  0.2189160737907514  1.0000
data_image176
_chemical_formula_structural       Li4H4S2O10
_chemical_formula_sum              "Li4 H4 S2 O10"
_cell_length_a       4.90399
_cell_length_b       5.555894000000001
_cell_length_c       8.269645510084757
_cell_angle_alpha    72.8917451750904
_cell_angle_beta     90.0
_cell_angle_gamma    90.0

_space_group_name_H-M_alt    "P 1"
_space_group_IT_number       1

loop_
  _space_group_symop_operation_xyz
  'x, y, z'

loop_
  _atom_site_type_symbol
  _atom_site_label
  _atom_site_symmetry_multiplicity
  _atom_site_fract_x
  _atom_site_fract_y
  _atom_site_fract_z
  _atom_site_occupancy
  Li  Li1       1.0  0.7348845459055156  0.7125888480804861  0.4498682061675936  1.0000
  Li  Li2       1.0  0.5535254403948784  0.1441187160089612  0.8792081363499165  1.0000
  Li  Li3       1.0  0.9180815285653807  0.4838563760276884  0.06327034858986735  1.0000
  Li  Li4       1.0  0.6472795400768518  0.13082839059643447  0.2865577007178217  1.0000
  H   H1        1.0  0.8014256590977311  0.7560284519568086  0.602388525614515  1.0000
  H   H2        1.0  0.012007910758256912  0.410874311812222  0.9271289409371093  1.0000
  H   H3        1.0  0.7206273498013616  0.6463496424257755  0.4610348008573055  1.0000
  H   H4        1.0  0.765104808844626  0.8035725131630898  0.27272039698436856  1.0000
  S   S1        1.0  0.4391685868613422  0.4408752480521798  0.7038490200648084  1.0000
  S   S2        1.0  0.001323002390563488  0.9790033501340076  0.0927294478751719  1.0000
  O   O1        1.0  0.19755348470062017  0.009443799266591668  0.22493007173761725  1.0000
  O   O2        1.0  0.2765605077147484  0.0887798061594367  0.9917401870479807  1.0000
  O   O3        1.0  0.886840136256069  0.12048349808901548  0.15717725199647248  1.0000
  O   O4        1.0  0.986698947759578  0.6610682564787567  0.9501995205646381  1.0000
  O   O5        1.0  0.2298304723808542  0.6522617460577749  0.7616443438455462  1.0000
  O   O6        1.0  0.22142915753647685  0.3603520260658115  0.4491205685772002  1.0000
  O   O7        1.0  0.7517914406489581  0.568893926392775  0.2357979224761948  1.0000
  O   O8        1.0  0.1944490959867835  0.8675326070515439  0.672804682108108  1.0000
  O   O9        1.0  0.82517921179533  0.6763762575574219  0.2535315460409038  1.0000
  O   O10       1.0  0.8315574359148741  0.8907781490124762  0.6690723559586331  1.0000
data_image177
_chemical_formula_structural       Li4H4S2O10
_chemical_formula_sum              "Li4 H4 S2 O10"
_cell_length_a       4.90399
_cell_length_b       5.555894000000001
_cell_length_c       8.269645510084757
_cell_angle_alpha    72.8917451750904
_cell_angle_beta     90.0
_cell_angle_gamma    90.0

_space_group_name_H-M_alt    "P 1"
_space_group_IT_number       1

loop_
  _space_group_symop_operation_xyz
  'x, y, z'

loop_
  _atom_site_type_symbol
  _atom_site_label
  _atom_site_symmetry_multiplicity
  _atom_site_fract_x
  _atom_site_fract_y
  _atom_site_fract_z
  _atom_site_occupancy
  Li  Li1       1.0  0.02263000444509089  0.05714861722663045  0.6557298742700368  1.0000
  Li  Li2       1.0  0.4718261696398258  0.3314815047197044  0.8696846654638648  1.0000
  Li  Li3       1.0  0.3539757073740475  0.4879387551918626  0.5763065260834992  1.0000
  Li  Li4       1.0  0.5607765605673194  0.27771937858778983  0.24895101285073906  1.0000
  H   H1        1.0  0.2067531580105424  0.9620777722448111  0.525146181229502  1.0000
  H   H2        1.0  0.6987189678475261  0.8594134794548154  0.058142395690083504  1.0000
  H   H3        1.0  0.8473850190639496  0.3606360927224159  0.01788168668281287  1.0000
  H   H4        1.0  0.08034751028753817  0.8998252723831683  0.9783867648802698  1.0000
  S   S1        1.0  0.8369429660961032  0.11513990280218422  0.39728053999715485  1.0000
  S   S2        1.0  0.22856775089167058  0.9519817813998088  0.6067898005712777  1.0000
  O   O1        1.0  0.7725411397404969  0.2597523411968723  0.28461275319568813  1.0000
  O   O2        1.0  0.10514249186962843  0.1104085847036913  0.8376391129568219  1.0000
  O   O3        1.0  0.2944032773375511  0.18934179563075304  0.28555237385444343  1.0000
  O   O4        1.0  0.1740550454996992  0.4021718315780163  0.35203607147559524  1.0000
  O   O5        1.0  0.33975168014876544  0.5030576664139517  0.09211302176117897  1.0000
  O   O6        1.0  0.1444398402236402  0.5383379748091102  0.3129275762476027  1.0000
  O   O7        1.0  0.6559274424798787  0.5240920118521899  0.13924195419531316  1.0000
  O   O8        1.0  0.37698215199634433  0.9524367051199079  0.3946628228877671  1.0000
  O   O9        1.0  0.37517273519188166  0.1881410963833332  0.8053288608207367  1.0000
  O   O10       1.0  0.842827376909554  0.8973401603288949  0.693350708228536  1.0000
data_image178
_chemical_formula_structural       Li4H4S2O10
_chemical_formula_sum              "Li4 H4 S2 O10"
_cell_length_a       4.90399
_cell_length_b       5.555894000000001
_cell_length_c       8.269645510084757
_cell_angle_alpha    72.8917451750904
_cell_angle_beta     90.0
_cell_angle_gamma    90.0

_space_group_name_H-M_alt    "P 1"
_space_group_IT_number       1

loop_
  _space_group_symop_operation_xyz
  'x, y, z'

loop_
  _atom_site_type_symbol
  _atom_site_label
  _atom_site_symmetry_multiplicity
  _atom_site_fract_x
  _atom_site_fract_y
  _atom_site_fract_z
  _atom_site_occupancy
  Li  Li1       1.0  0.08693910762667656  0.16986427642405033  0.26593050826340914  1.0000
  Li  Li2       1.0  0.513585552573204  0.030872936826199293  0.7645422918722034  1.0000
  Li  Li3       1.0  0.6180248178425245  0.3380474012810737  0.6162696839310229  1.0000
  Li  Li4       1.0  0.3428203137591481  0.9512462181737646  0.6639762519625947  1.0000
  H   H1        1.0  0.14001653995364904  0.018317745998501778  0.7389359886292368  1.0000
  H   H2        1.0  0.6149519803002477  0.15290508139878511  0.11192590848077089  1.0000
  H   H3        1.0  0.35911615565419197  0.9674619864672422  0.1671899507055059  1.0000
  H   H4        1.0  0.4741536844521761  0.745927500538528  0.505196918733418  1.0000
  S   S1        1.0  0.6167295589111745  0.6331384498625994  0.350829434057232  1.0000
  S   S2        1.0  0.644160419004038  0.7531989665003493  0.6863511488772929  1.0000
  O   O1        1.0  0.9008291056379676  0.9882615469396114  0.23524028924293816  1.0000
  O   O2        1.0  0.13254635222256184  0.20907922298647463  0.6787851277040318  1.0000
  O   O3        1.0  0.24795757560059428  0.9845280143199489  0.14033682248555124  1.0000
  O   O4        1.0  0.22137814172310755  0.7980069157201797  0.7448025260237046  1.0000
  O   O5        1.0  0.9577039241557941  0.774851739523001  0.44305326614994556  1.0000
  O   O6        1.0  0.7451486005447805  0.7196734822355211  0.9274949412792921  1.0000
  O   O7        1.0  0.8353632180951536  0.9131253744417336  0.24388948071282357  1.0000
  O   O8        1.0  0.5001618945971131  0.7764953225851059  0.3629578163381666  1.0000
  O   O9        1.0  0.3397811446338892  0.57961799018085  0.6529530169791542  1.0000
  O   O10       1.0  0.011107265017926693  0.43462072499096394  0.5627353721065447  1.0000
data_image179
_chemical_formula_structural       Li4H4S2O10
_chemical_formula_sum              "Li4 H4 S2 O10"
_cell_length_a       4.90399
_cell_length_b       5.555894000000001
_cell_length_c       8.269645510084757
_cell_angle_alpha    72.8917451750904
_cell_angle_beta     90.0
_cell_angle_gamma    90.0

_space_group_name_H-M_alt    "P 1"
_space_group_IT_number       1

loop_
  _space_group_symop_operation_xyz
  'x, y, z'

loop_
  _atom_site_type_symbol
  _atom_site_label
  _atom_site_symmetry_multiplicity
  _atom_site_fract_x
  _atom_site_fract_y
  _atom_site_fract_z
  _atom_site_occupancy
  Li  Li1       1.0  0.020290346816182137  0.7613436614628881  0.40039475238882005  1.0000
  Li  Li2       1.0  0.8136635608971119  0.4124198672361672  0.8282053265720606  1.0000
  Li  Li3       1.0  0.40858892898540944  0.44326482038013637  0.7278370638377964  1.0000
  Li  Li4       1.0  0.0415220633149147  0.44058358867187053  0.7767247742740437  1.0000
  H   H1        1.0  0.28372656367719173  0.2916821837425232  0.8229685444384813  1.0000
  H   H2        1.0  0.11875042133033276  0.21317073702812195  0.07839571125805378  1.0000
  H   H3        1.0  0.7282744366675615  0.5796914715319872  0.024942605406977236  1.0000
  H   H4        1.0  0.3860821344424039  0.5484318309463561  0.8258160990662873  1.0000
  S   S1        1.0  0.3230060590431094  0.39717881428077817  0.8527245366858551  1.0000
  S   S2        1.0  0.18911619577556849  0.2075206150766462  0.707051760982722  1.0000
  O   O1        1.0  0.2068428760394454  0.4497824525460601  0.12793529173359275  1.0000
  O   O2        1.0  0.3136477991938591  0.6042875786079094  0.6000385036459193  1.0000
  O   O3        1.0  0.09606847539544106  0.1157473970670253  0.9795561989303678  1.0000
  O   O4        1.0  0.5318891407659976  0.8930051971692592  0.9961108093266375  1.0000
  O   O5        1.0  0.40472652402240783  0.11759553774027154  0.43492718879133463  1.0000
  O   O6        1.0  0.8627554965205491  0.5882642148062587  0.39548733504489064  1.0000
  O   O7        1.0  0.17578499228693545  0.553429173945915  0.03910579567309469  1.0000
  O   O8        1.0  0.8616824978962541  0.7153647389495745  0.741219652001746  1.0000
  O   O9        1.0  0.7365970378741622  0.8160768211819232  0.937599829339888  1.0000
  O   O10       1.0  0.1464594230055809  0.20601414935663342  0.16266870661638677  1.0000
data_image180
_chemical_formula_structural       Li4H4S2O10
_chemical_formula_sum              "Li4 H4 S2 O10"
_cell_length_a       4.90399
_cell_length_b       5.555894000000001
_cell_length_c       8.269645510084757
_cell_angle_alpha    72.8917451750904
_cell_angle_beta     90.0
_cell_angle_gamma    90.0

_space_group_name_H-M_alt    "P 1"
_space_group_IT_number       1

loop_
  _space_group_symop_operation_xyz
  'x, y, z'

loop_
  _atom_site_type_symbol
  _atom_site_label
  _atom_site_symmetry_multiplicity
  _atom_site_fract_x
  _atom_site_fract_y
  _atom_site_fract_z
  _atom_site_occupancy
  Li  Li1       1.0  0.06946298095863312  0.05251550301909447  0.5460119796916842  1.0000
  Li  Li2       1.0  0.6514868922531605  0.6663422626443207  0.3247026680037379  1.0000
  Li  Li3       1.0  0.21491900406545028  0.7050524465739727  0.462402222212404  1.0000
  Li  Li4       1.0  0.4334136638790369  0.6848072553984821  0.463968297932297  1.0000
  H   H1        1.0  0.4998824903741479  0.7872470673173666  0.042624276829883456  1.0000
  H   H2        1.0  0.6535138292238116  0.649498532526195  0.9241498989285901  1.0000
  H   H3        1.0  0.9087188262492418  0.6953628044575453  0.9349330750992522  1.0000
  H   H4        1.0  0.2609494160860777  0.6511327708140016  0.09429164556786418  1.0000
  S   S1        1.0  0.7524862382560968  0.13141592359170318  0.8468401649588486  1.0000
  S   S2        1.0  0.41211299470160156  0.5843817332061008  0.6702294782735407  1.0000
  O   O1        1.0  0.9144694078713655  0.6502012244891375  0.9009042233228683  1.0000
  O   O2        1.0  0.16229005437344313  0.6704174266196787  0.3692172073642723  1.0000
  O   O3        1.0  0.16714282939210534  0.8516145199537277  0.3732230798341334  1.0000
  O   O4        1.0  0.424419605958974  0.6298000246752053  0.10506804438773543  1.0000
  O   O5        1.0  0.10586248419713229  0.15007377421716228  0.48010415176395327  1.0000
  O   O6        1.0  0.31183288898319006  0.2346953977830708  0.1198890246450901  1.0000
  O   O7        1.0  0.09358703251928091  0.9541282007994596  0.743475169991143  1.0000
  O   O8        1.0  0.5055019715800881  0.5866193331312388  0.9070641057915054  1.0000
  O   O9        1.0  0.6780871367082  0.11332094995304942  0.0604026997461915  1.0000
  O   O10       1.0  0.9803206864744425  0.4195562773384154  0.21948639454785734  1.0000
data_image181
_chemical_formula_structural       Li4H4S2O10
_chemical_formula_sum              "Li4 H4 S2 O10"
_cell_length_a       4.90399
_cell_length_b       5.555894000000001
_cell_length_c       8.269645510084757
_cell_angle_alpha    72.8917451750904
_cell_angle_beta     90.0
_cell_angle_gamma    90.0

_space_group_name_H-M_alt    "P 1"
_space_group_IT_number       1

loop_
  _space_group_symop_operation_xyz
  'x, y, z'

loop_
  _atom_site_type_symbol
  _atom_site_label
  _atom_site_symmetry_multiplicity
  _atom_site_fract_x
  _atom_site_fract_y
  _atom_site_fract_z
  _atom_site_occupancy
  Li  Li1       1.0  0.9767222150694579  0.6979584817308933  0.38687000586651266  1.0000
  Li  Li2       1.0  0.366042573004961  0.6487291548401117  0.7593487817794085  1.0000
  Li  Li3       1.0  0.06429178931284696  0.444002473494038  0.345918842125684  1.0000
  Li  Li4       1.0  0.932010356336832  0.7358167900238186  0.32886261388193816  1.0000
  H   H1        1.0  0.4503490950446576  0.7803622158244252  0.11420300509780645  1.0000
  H   H2        1.0  0.8984822686761618  0.2836613208055496  0.40669439104385674  1.0000
  H   H3        1.0  0.02026180550456047  0.10221228376030922  0.8378450651653111  1.0000
  H   H4        1.0  0.7576991482637823  0.8910321248695254  0.3164868685416877  1.0000
  S   S1        1.0  0.09975596191361547  0.15848706220276654  0.08259310424182331  1.0000
  S   S2        1.0  0.49455093243159354  0.14637756324373186  0.12375948997214437  1.0000
  O   O1        1.0  0.7459798478521407  0.9347823561402038  0.9407646763138473  1.0000
  O   O2        1.0  0.8824724745936692  0.7625337496865541  0.6159861854976043  1.0000
  O   O3        1.0  0.49617550056427717  0.04594428336713463  0.29507081187330186  1.0000
  O   O4        1.0  0.6051227277057478  0.16523794550448656  0.5141575540183112  1.0000
  O   O5        1.0  0.378268976113759  0.7719016303890385  0.11739836190827191  1.0000
  O   O6        1.0  0.12317884294316173  0.10250703222118318  0.6086455811746418  1.0000
  O   O7        1.0  0.4629331862088293  0.25088287296239287  0.30055640486534685  1.0000
  O   O8        1.0  0.28258586023002863  0.9183076780755073  0.44161901978077367  1.0000
  O   O9        1.0  0.7367335082963109  0.040963901206851006  0.587231095531024  1.0000
  O   O10       1.0  0.599793242290616  0.31532799545675516  0.6639912143582478  1.0000
data_image182
_chemical_formula_structural       Li4H4S2O10
_chemical_formula_sum              "Li4 H4 S2 O10"
_cell_length_a       4.90399
_cell_length_b       5.555894000000001
_cell_length_c       8.269645510084757
_cell_angle_alpha    72.8917451750904
_cell_angle_beta     90.0
_cell_angle_gamma    90.0

_space_group_name_H-M_alt    "P 1"
_space_group_IT_number       1

loop_
  _space_group_symop_operation_xyz
  'x, y, z'

loop_
  _atom_site_type_symbol
  _atom_site_label
  _atom_site_symmetry_multiplicity
  _atom_site_fract_x
  _atom_site_fract_y
  _atom_site_fract_z
  _atom_site_occupancy
  Li  Li1       1.0  0.07885318843182176  0.5495350637938827  0.3199061213526875  1.0000
  Li  Li2       1.0  0.19836491346359253  0.7488179868087173  0.8695360831916332  1.0000
  Li  Li3       1.0  0.9774169963202439  0.5377721232362092  0.2499656262807548  1.0000
  Li  Li4       1.0  0.20968944113701582  0.6017053432296962  0.38215546403080225  1.0000
  H   H1        1.0  0.8852878888137639  0.7402874790132046  0.34154929011128843  1.0000
  H   H2        1.0  0.021177215967327356  0.30940283788368106  0.8875376431969926  1.0000
  H   H3        1.0  0.6245060274377465  0.7026569526642561  0.2999243320664391  1.0000
  H   H4        1.0  0.26657834788784385  0.5060300454497337  0.5866064517758787  1.0000
  S   S1        1.0  0.9529365212656558  0.5487219034694135  0.783985593037869  1.0000
  S   S2        1.0  0.28795213490957394  0.4274917454458773  0.16105615766718984  1.0000
  O   O1        1.0  0.16314399242401123  0.8461362567031756  0.11980359675362706  1.0000
  O   O2        1.0  0.9334662114270031  0.4663986556697637  0.8299487355980091  1.0000
  O   O3        1.0  0.013187219854444265  0.889168253634125  0.41223493264988065  1.0000
  O   O4        1.0  0.6502494972664863  0.8572596211452037  0.06999673548853025  1.0000
  O   O5        1.0  0.18017463223077357  0.6115977072622627  0.5824128522071987  1.0000
  O   O6        1.0  0.08353912271559238  0.3146558322478086  0.42061014799401164  1.0000
  O   O7        1.0  0.47535036655608565  0.41555161552969366  0.7175340505200438  1.0000
  O   O8        1.0  0.9280383759178221  0.4820045359665528  0.5901986905373633  1.0000
  O   O9        1.0  0.12830807641148567  0.3413740168325603  0.03841022157575935  1.0000
  O   O10       1.0  0.3200634615495801  0.4612607969902456  0.43708812817931175  1.0000
data_image183
_chemical_formula_structural       Li4H4S2O10
_chemical_formula_sum              "Li4 H4 S2 O10"
_cell_length_a       4.90399
_cell_length_b       5.555894000000001
_cell_length_c       8.269645510084757
_cell_angle_alpha    72.8917451750904
_cell_angle_beta     90.0
_cell_angle_gamma    90.0

_space_group_name_H-M_alt    "P 1"
_space_group_IT_number       1

loop_
  _space_group_symop_operation_xyz
  'x, y, z'

loop_
  _atom_site_type_symbol
  _atom_site_label
  _atom_site_symmetry_multiplicity
  _atom_site_fract_x
  _atom_site_fract_y
  _atom_site_fract_z
  _atom_site_occupancy
  Li  Li1       1.0  0.32654169702436775  0.49432005919516087  0.5711905905045569  1.0000
  Li  Li2       1.0  0.9255539402365685  0.6402595252729952  0.01744705345481634  1.0000
  Li  Li3       1.0  0.7800221496727318  0.5998477370012552  0.5011086417362094  1.0000
  Li  Li4       1.0  0.18601624481379986  0.8411224805749953  0.736097609391436  1.0000
  H   H1        1.0  0.616935110418126  0.31204259023070335  0.3944549015723169  1.0000
  H   H2        1.0  0.49144549667835236  0.6873175338841975  0.7564378780080006  1.0000
  H   H3        1.0  0.09846642054617405  0.8603444173932076  0.15849684743443504  1.0000
  H   H4        1.0  0.6431516848970205  0.572709540836513  0.7228049589321017  1.0000
  S   S1        1.0  0.42957377852872014  0.17300523328594863  0.20233799636753247  1.0000
  S   S2        1.0  0.17805421305820346  0.24122932890895754  0.19024663930758834  1.0000
  O   O1        1.0  0.9847485548816621  0.5254052502568811  0.17283549206331372  1.0000
  O   O2        1.0  0.9676140639930964  0.9822353990748525  0.913082352548372  1.0000
  O   O3        1.0  0.2830627663061023  0.16981720260810107  0.05290463170967996  1.0000
  O   O4        1.0  0.18346978188492358  0.8472478894982487  0.827563643513713  1.0000
  O   O5        1.0  0.45952500379644334  0.9165824967203662  0.09223384177312255  1.0000
  O   O6        1.0  0.3619657992385328  0.20695178327150643  0.21904367301613092  1.0000
  O   O7        1.0  0.07158129324670881  0.767305891145952  0.9821567523758858  1.0000
  O   O8        1.0  0.20922571048140526  0.4505675475811586  0.8223194905440323  1.0000
  O   O9        1.0  0.8352860305458307  0.9279882041737437  0.7360271135694347  1.0000
  O   O10       1.0  0.04981806315481663  0.9056522205937654  0.6449396405369043  1.0000
data_image184
_chemical_formula_structural       Li4H4S2O10
_chemical_formula_sum              "Li4 H4 S2 O10"
_cell_length_a       4.90399
_cell_length_b       5.555894000000001
_cell_length_c       8.269645510084757
_cell_angle_alpha    72.8917451750904
_cell_angle_beta     90.0
_cell_angle_gamma    90.0

_space_group_name_H-M_alt    "P 1"
_space_group_IT_number       1

loop_
  _space_group_symop_operation_xyz
  'x, y, z'

loop_
  _atom_site_type_symbol
  _atom_site_label
  _atom_site_symmetry_multiplicity
  _atom_site_fract_x
  _atom_site_fract_y
  _atom_site_fract_z
  _atom_site_occupancy
  Li  Li1       1.0  0.262744099018164  0.6954179725144058  0.6653236630372703  1.0000
  Li  Li2       1.0  0.17509635910391808  0.4627990145236254  0.009231014177203178  1.0000
  Li  Li3       1.0  0.6317591853439808  0.33326454227790236  0.5030660410411656  1.0000
  Li  Li4       1.0  0.7198096252977848  0.4114111193921417  0.5920293459203094  1.0000
  H   H1        1.0  0.7803526252973825  0.17102732509374619  0.9484087047167122  1.0000
  H   H2        1.0  0.5342424921691418  0.2543565183877945  0.12852881744038314  1.0000
  H   H3        1.0  0.9930927073583007  0.11017398722469807  0.6020505671622232  1.0000
  H   H4        1.0  0.1564046135172248  0.7684571794234216  0.7069492829032242  1.0000
  S   S1        1.0  0.1985800180118531  0.1319825428072363  0.4692694469122216  1.0000
  S   S2        1.0  0.08150939550250769  0.9031377416104078  0.12095982441678643  1.0000
  O   O1        1.0  0.6626059073023498  0.6212348731933162  0.37294992338865995  1.0000
  O   O2        1.0  0.5640566656365991  0.48491098219528794  0.27542682457715273  1.0000
  O   O3        1.0  0.7335680639371276  0.0385228922823444  0.9330444841179997  1.0000
  O   O4        1.0  0.5966810686513782  0.18952624569647014  0.6862201872863807  1.0000
  O   O5        1.0  0.8288295206148177  0.3098764033820771  0.48479933477938175  1.0000
  O   O6        1.0  0.5663678753189743  0.4589384712744504  0.5638734800741076  1.0000
  O   O7        1.0  0.9621852273121476  0.3128341882256791  0.7486149298492819  1.0000
  O   O8        1.0  0.7752277418039739  0.39196156978141516  0.4328818618087098  1.0000
  O   O9        1.0  0.8534687901847064  0.6305554187856615  0.9415804434102029  1.0000
  O   O10       1.0  0.6963384011760354  0.08975052786991  0.2269609495997429  1.0000
data_image185
_chemical_formula_structural       Li4H4S2O10
_chemical_formula_sum              "Li4 H4 S2 O10"
_cell_length_a       4.90399
_cell_length_b       5.555894000000001
_cell_length_c       8.269645510084757
_cell_angle_alpha    72.8917451750904
_cell_angle_beta     90.0
_cell_angle_gamma    90.0

_space_group_name_H-M_alt    "P 1"
_space_group_IT_number       1

loop_
  _space_group_symop_operation_xyz
  'x, y, z'

loop_
  _atom_site_type_symbol
  _atom_site_label
  _atom_site_symmetry_multiplicity
  _atom_site_fract_x
  _atom_site_fract_y
  _atom_site_fract_z
  _atom_site_occupancy
  Li  Li1       1.0  0.2841584236593917  0.2552588253747672  0.6458649858832359  1.0000
  Li  Li2       1.0  0.5046082772314548  0.5818058848381042  0.8187282187864184  1.0000
  Li  Li3       1.0  0.0014607945922762156  0.36715311324223876  0.17732715047895908  1.0000
  Li  Li4       1.0  0.6632981458678842  0.8180155898444355  0.4387657870538533  1.0000
  H   H1        1.0  0.3721813247539103  0.7894326755777001  0.5818749794270843  1.0000
  H   H2        1.0  0.17933951877057552  0.7243524370715022  0.865199790452607  1.0000
  H   H3        1.0  0.7385397832840681  0.5095768570899963  0.5742336659459397  1.0000
  H   H4        1.0  0.4779403507709503  0.07195019721984863  0.3297288534231484  1.0000
  S   S1        1.0  0.7569867845159024  0.8276783546898514  0.22229117387905717  1.0000
  S   S2        1.0  0.6937433551065624  0.1591218097601086  0.040405564941465855  1.0000
  O   O1        1.0  0.47082919254899025  0.0576211690204218  0.45481353672221303  1.0000
  O   O2        1.0  0.8600068208761513  0.6784174704225734  0.8767546216840856  1.0000
  O   O3        1.0  0.7445705849677324  0.6098186302697286  0.9366255421191454  1.0000
  O   O4        1.0  0.6987904522102326  0.740175878861919  0.5701432203641161  1.0000
  O   O5        1.0  0.9927611898165196  0.04821259209893469  0.7196814818307757  1.0000
  O   O6        1.0  0.6130567309446633  0.8511236200574785  0.7608803450129926  1.0000
  O   O7        1.0  0.546371259028092  0.0546899305190891  0.12720013479702175  1.0000
  O   O8        1.0  0.07394768577069044  0.625399372074753  0.2217933889478445  1.0000
  O   O9        1.0  0.5486620143055916  0.46808330435305834  0.9045468639815226  1.0000
  O   O10       1.0  0.845690093934536  0.47038531373254955  0.9393254281021655  1.0000
data_image186
_chemical_formula_structural       Li4H4S2O10
_chemical_formula_sum              "Li4 H4 S2 O10"
_cell_length_a       4.90399
_cell_length_b       5.555894000000001
_cell_length_c       8.269645510084757
_cell_angle_alpha    72.8917451750904
_cell_angle_beta     90.0
_cell_angle_gamma    90.0

_space_group_name_H-M_alt    "P 1"
_space_group_IT_number       1

loop_
  _space_group_symop_operation_xyz
  'x, y, z'

loop_
  _atom_site_type_symbol
  _atom_site_label
  _atom_site_symmetry_multiplicity
  _atom_site_fract_x
  _atom_site_fract_y
  _atom_site_fract_z
  _atom_site_occupancy
  Li  Li1       1.0  0.6218486496945843  0.6189437445718795  0.6266449068207294  1.0000
  Li  Li2       1.0  0.8808313794434071  0.45823637675493956  0.6428015874698758  1.0000
  Li  Li3       1.0  0.21067138412036002  0.774822183419019  0.531579356174916  1.0000
  Li  Li4       1.0  0.1992763178423047  0.5913443290628493  0.9489845156203955  1.0000
  H   H1        1.0  0.4662900874391198  0.9674173723906279  0.8111041490919888  1.0000
  H   H2        1.0  0.9810384367592633  0.9672028422355652  0.8310171669581905  1.0000
  H   H3        1.0  0.4004648607224226  0.5342718958854675  0.8855140855885111  1.0000
  H   H4        1.0  0.8846392910927534  0.9691377258859575  0.37059706216678023  1.0000
  S   S1        1.0  0.16617844287975458  0.5683487632777542  0.6170397608075291  1.0000
  S   S2        1.0  0.5855708634480834  0.3969065311830491  0.026457094820216298  1.0000
  O   O1        1.0  0.5299604516476393  0.5200612127082422  0.6384422809351236  1.0000
  O   O2        1.0  0.7533301920630038  0.7033899183152243  0.1484099217923358  1.0000
  O   O3        1.0  0.07754749525338411  0.4946263408055529  0.2986612059175968  1.0000
  O   O4        1.0  0.4287989462027326  0.4080446718726307  0.2367947934253607  1.0000
  O   O5        1.0  0.27984484657645226  0.3378887196990945  0.4473908154759556  1.0000
  O   O6        1.0  0.8508635312318802  0.4400978279300034  0.8908696211874485  1.0000
  O   O7        1.0  0.027858256944455206  0.633158995769918  0.6305049875227269  1.0000
  O   O8        1.0  0.2368921022862196  0.7258801028365269  0.4024736675200984  1.0000
  O   O9        1.0  0.772432413417846  0.3145212484523654  0.5255890100961551  1.0000
  O   O10       1.0  0.0942025724798441  0.9962838913779706  0.6735755298286676  1.0000
data_image187
_chemical_formula_structural       Li4H4S2O10
_chemical_formula_sum              "Li4 H4 S2 O10"
_cell_length_a       4.90399
_cell_length_b       5.555894000000001
_cell_length_c       8.269645510084757
_cell_angle_alpha    72.8917451750904
_cell_angle_beta     90.0
_cell_angle_gamma    90.0

_space_group_name_H-M_alt    "P 1"
_space_group_IT_number       1

loop_
  _space_group_symop_operation_xyz
  'x, y, z'

loop_
  _atom_site_type_symbol
  _atom_site_label
  _atom_site_symmetry_multiplicity
  _atom_site_fract_x
  _atom_site_fract_y
  _atom_site_fract_z
  _atom_site_occupancy
  Li  Li1       1.0  0.7642044338863343  0.618148589041084  0.12831119215115905  1.0000
  Li  Li2       1.0  0.6093245074152946  0.704536372795701  0.21310450043529272  1.0000
  Li  Li3       1.0  0.29020789358764887  0.716489139944315  0.5019938638433814  1.0000
  Li  Li4       1.0  0.30359519366174936  0.3305678637698293  0.9351076884195209  1.0000
  H   H1        1.0  0.5810575000941753  0.3982709553092718  0.6958316089585423  1.0000
  H   H2        1.0  0.03157998248934746  0.6265784450806677  0.008033286081627011  1.0000
  H   H3        1.0  0.2791689168661833  0.032324254512786865  0.663948368979618  1.0000
  H   H4        1.0  0.9547231793403625  0.16590448981150985  0.7556667109020054  1.0000
  S   S1        1.0  0.6548761643280159  0.9968360918574035  0.761114206397906  1.0000
  S   S2        1.0  0.43675248324871063  0.562603093450889  0.24102386343292892  1.0000
  O   O1        1.0  0.13358131563290954  0.6661248339805752  0.6892895582132041  1.0000
  O   O2        1.0  0.1519298809580505  0.5010263692820445  0.3307541520916857  1.0000
  O   O3        1.0  0.6825063335709274  0.6651614835718647  0.3898987683933228  1.0000
  O   O4        1.0  0.0718274349346757  0.4793948030564934  0.9975528950453736  1.0000
  O   O5        1.0  0.06338757695630193  0.140879704766121  0.7801661021076143  1.0000
  O   O6        1.0  0.15943666780367494  0.5156064755283296  0.28338152868673205  1.0000
  O   O7        1.0  0.4327977861976251  0.8495940300635993  0.1091144344973145  1.0000
  O   O8        1.0  0.7199091075453907  0.9261901498539373  0.7068052132381126  1.0000
  O   O9        1.0  0.9105580723844469  0.14329957822337747  0.7687611191067845  1.0000
  O   O10       1.0  0.6765188947319984  0.1667087262030691  0.1626397513318807  1.0000
data_image188
_chemical_formula_structural       Li4H4S2O10
_chemical_formula_sum              "Li4 H4 S2 O10"
_cell_length_a       4.90399
_cell_length_b       5.555894000000001
_cell_length_c       8.269645510084757
_cell_angle_alpha    72.8917451750904
_cell_angle_beta     90.0
_cell_angle_gamma    90.0

_space_group_name_H-M_alt    "P 1"
_space_group_IT_number       1

loop_
  _space_group_symop_operation_xyz
  'x, y, z'

loop_
  _atom_site_type_symbol
  _atom_site_label
  _atom_site_symmetry_multiplicity
  _atom_site_fract_x
  _atom_site_fract_y
  _atom_site_fract_z
  _atom_site_occupancy
  Li  Li1       1.0  0.41478941426612437  0.6617580007296056  0.256677967030555  1.0000
  Li  Li2       1.0  0.4942123182117939  0.7525745467282832  0.2650702791288495  1.0000
  Li  Li3       1.0  0.6570825022645295  0.6163461320102215  0.3257325408048928  1.0000
  Li  Li4       1.0  0.4468676997348666  0.772434602258727  0.2979578039376065  1.0000
  H   H1        1.0  0.7974171219393611  0.5593065693974495  0.08821533340960741  1.0000
  H   H2        1.0  0.19821515073999763  0.3993902816437185  0.7803325772983953  1.0000
  H   H3        1.0  0.4201345993205905  0.8419691156595945  0.08384159253910184  1.0000
  H   H4        1.0  0.0009283712133765221  0.5146578121930361  0.8120352854020894  1.0000
  S   S1        1.0  0.9083166511918535  0.7606510068289936  0.7242959479335696  1.0000
  S   S2        1.0  0.8484434736892581  0.7803536092396826  0.2949559858534485  1.0000
  O   O1        1.0  0.9785083695314825  0.6419212693581358  0.7186585520394146  1.0000
  O   O2        1.0  0.9482052917592227  0.5466124376980588  0.2164387447410263  1.0000
  O   O3        1.0  0.35673277685418725  0.4984301080694422  0.17939405934885144  1.0000
  O   O4        1.0  0.1950706031639129  0.8860318507067859  0.6029431771021336  1.0000
  O   O5        1.0  0.16403258102945983  0.23546991234888992  0.7325404221192002  1.0000
  O   O6        1.0  0.2581709558144212  0.624603625619784  0.7741464199498296  1.0000
  O   O7        1.0  0.3374567984137684  0.2106425550300628  0.07663106254767627  1.0000
  O   O8        1.0  0.08678253763355315  0.7589983579237014  0.6064429112011567  1.0000
  O   O9        1.0  0.7574019301682711  0.44636677019298077  0.3371688141487539  1.0000
  O   O10       1.0  0.15109359472990036  0.7376744342036545  0.41849761840421706  1.0000
data_image189
_chemical_formula_structural       Li4H4S2O10
_chemical_formula_sum              "Li4 H4 S2 O10"
_cell_length_a       4.90399
_cell_length_b       5.555894000000001
_cell_length_c       8.269645510084757
_cell_angle_alpha    72.8917451750904
_cell_angle_beta     90.0
_cell_angle_gamma    90.0

_space_group_name_H-M_alt    "P 1"
_space_group_IT_number       1

loop_
  _space_group_symop_operation_xyz
  'x, y, z'

loop_
  _atom_site_type_symbol
  _atom_site_label
  _atom_site_symmetry_multiplicity
  _atom_site_fract_x
  _atom_site_fract_y
  _atom_site_fract_z
  _atom_site_occupancy
  Li  Li1       1.0  0.8917675859993324  0.8216141515877098  0.16519717127084732  1.0000
  Li  Li2       1.0  0.5717347376048565  0.9470192859880626  0.7613758472725749  1.0000
  Li  Li3       1.0  0.3274583304300904  0.3288561808876693  0.23321047704666853  1.0000
  Li  Li4       1.0  0.02190553117543459  0.5218093206640333  0.6208867857931182  1.0000
  H   H1        1.0  0.2117899286095053  0.45111717004328966  0.9060423793271184  1.0000
  H   H2        1.0  0.14589055022224784  0.33500039018690586  0.2921073796460405  1.0000
  H   H3        1.0  0.972576211206615  0.6035437658429146  0.7962676788447425  1.0000
  H   H4        1.0  0.7671092813834548  0.3353272620588541  0.36701531428843737  1.0000
  S   S1        1.0  0.756372832969646  0.7378079143818468  0.8949655354954302  1.0000
  S   S2        1.0  0.6355825057253242  0.7214502755086869  0.8525725370272994  1.0000
  O   O1        1.0  0.5679035633802414  0.39683293574489653  0.5606902877334505  1.0000
  O   O2        1.0  0.650840780697763  0.2434792349813506  0.0463358893757686  1.0000
  O   O3        1.0  0.165069040376693  0.8588200730737299  0.8100709316786379  1.0000
  O   O4        1.0  0.28480860230047256  0.8724000982474536  0.3426815975399222  1.0000
  O   O5        1.0  0.3914517310913652  0.7638948019111922  0.33049966720864177  1.0000
  O   O6        1.0  0.4532454698346555  0.48176282248459756  0.8563903397880495  1.0000
  O   O7        1.0  0.08620935189537704  0.5885909155476838  0.15023277011641767  1.0000
  O   O8        1.0  0.9250728052575141  0.49768124776892364  0.9738916632486507  1.0000
  O   O9        1.0  0.11436765221878886  0.7899381602182984  0.7203487994847819  1.0000
  O   O10       1.0  0.9443682925775647  0.12613479583524168  0.8705261099385098  1.0000
data_image190
_chemical_formula_structural       Li4H4S2O10
_chemical_formula_sum              "Li4 H4 S2 O10"
_cell_length_a       4.90399
_cell_length_b       5.555894000000001
_cell_length_c       8.269645510084757
_cell_angle_alpha    72.8917451750904
_cell_angle_beta     90.0
_cell_angle_gamma    90.0

_space_group_name_H-M_alt    "P 1"
_space_group_IT_number       1

loop_
  _space_group_symop_operation_xyz
  'x, y, z'

loop_
  _atom_site_type_symbol
  _atom_site_label
  _atom_site_symmetry_multiplicity
  _atom_site_fract_x
  _atom_site_fract_y
  _atom_site_fract_z
  _atom_site_occupancy
  Li  Li1       1.0  0.5022998441709206  0.7506689338479191  0.5956144209485501  1.0000
  Li  Li2       1.0  0.6704062968492508  0.04693059669807553  0.3177510416135192  1.0000
  Li  Li3       1.0  0.4846988769713789  0.7656524311751127  0.37436187732964754  1.0000
  Li  Li4       1.0  0.08815307356417179  0.13512363587506115  0.0751766919856891  1.0000
  H   H1        1.0  0.7403230527415872  0.2546884138137102  0.48360548669006675  1.0000
  H   H2        1.0  0.5313244070857763  0.3710094504058361  0.8116003347095102  1.0000
  H   H3        1.0  0.7117122979834676  0.07438121922314167  0.9310270880814642  1.0000
  H   H4        1.0  0.6608676020987332  0.8744925591163337  0.39701717160642147  1.0000
  S   S1        1.0  0.8760202933917753  0.6875841985456645  0.6836782596074045  1.0000
  S   S2        1.0  0.12563278060406446  0.9022616252768785  0.8331256241071969  1.0000
  O   O1        1.0  0.42594527546316385  0.520620979485102  0.47544288937933743  1.0000
  O   O2        1.0  0.4802582673728466  0.4045856051379815  0.18025353545090184  1.0000
  O   O3        1.0  0.25009717093780637  0.3859512466005981  0.15727192908525467  1.0000
  O   O4        1.0  0.4846968032652512  0.9842635241802782  0.26027001754846424  1.0000
  O   O5        1.0  0.7222403173800558  0.3693547916300304  0.7278390880674124  1.0000
  O   O6        1.0  0.8259968999773264  0.23198629869148135  0.40424158377572894  1.0000
  O   O7        1.0  0.048217754694633186  0.807673952775076  0.40903867324232124  1.0000
  O   O8        1.0  0.0929763950407505  0.3833491529803723  0.6214871268020943  1.0000
  O   O9        1.0  0.2085745963267982  0.9405719973146915  0.9449412366375327  1.0000
  O   O10       1.0  0.057915388606488705  0.8806180420797318  0.26796270813792944  1.0000
data_image191
_chemical_formula_structural       Li4H4S2O10
_chemical_formula_sum              "Li4 H4 S2 O10"
_cell_length_a       4.90399
_cell_length_b       5.555894000000001
_cell_length_c       8.269645510084757
_cell_angle_alpha    72.8917451750904
_cell_angle_beta     90.0
_cell_angle_gamma    90.0

_space_group_name_H-M_alt    "P 1"
_space_group_IT_number       1

loop_
  _space_group_symop_operation_xyz
  'x, y, z'

loop_
  _atom_site_type_symbol
  _atom_site_label
  _atom_site_symmetry_multiplicity
  _atom_site_fract_x
  _atom_site_fract_y
  _atom_site_fract_z
  _atom_site_occupancy
  Li  Li1       1.0  0.21459699247498065  0.24316120753064752  0.3159286880400032  1.0000
  Li  Li2       1.0  0.03269512578845024  0.5691736894659698  0.6225885096937418  1.0000
  Li  Li3       1.0  0.3033924172632396  0.5779560244409367  0.5880464492365718  1.0000
  Li  Li4       1.0  0.6907175183296204  0.7992220208980143  0.405556499841623  1.0000
  H   H1        1.0  0.11705484567210078  0.9399640783667564  0.6151891872286797  1.0000
  H   H2        1.0  0.9143213350325823  0.20008033979684114  0.3537902520620264  1.0000
  H   H3        1.0  0.4168026614934206  0.6068005431443453  0.6075903880409896  1.0000
  H   H4        1.0  0.9921110020950437  0.5122103104367852  0.1426586527377367  1.0000
  S   S1        1.0  0.4003081162518356  0.8833118043839931  0.30245484900660813  1.0000
  S   S2        1.0  0.34215802839025855  0.8174091270193458  0.05890594492666423  1.0000
  O   O1        1.0  0.4432446900755167  0.5367381516844034  0.23319749534130096  1.0000
  O   O2        1.0  0.7760586268268526  0.9527032497571781  0.5082928577321582  1.0000
  O   O3        1.0  0.5693529234267771  0.5492145034559144  0.043744299560785294  1.0000
  O   O4        1.0  0.9604864281136543  0.05193972424603999  0.606837825383991  1.0000
  O   O5        1.0  0.6790210900362581  0.8486797162913717  0.08596958185080439  1.0000
  O   O6        1.0  0.8252226347103715  0.46201844280585647  0.22556430846452713  1.0000
  O   O7        1.0  0.3737782054813579  0.20116534270346165  0.8210304890526459  1.0000
  O   O8        1.0  0.8373798097018152  0.0946874514920637  0.3751806292566471  1.0000
  O   O9        1.0  0.08942444296553731  0.3977254810743034  0.004205261240713298  1.0000
  O   O10       1.0  0.19281444791704416  0.12036795041058213  0.9111827820306644  1.0000
data_image192
_chemical_formula_structural       Li4H4S2O10
_chemical_formula_sum              "Li4 H4 S2 O10"
_cell_length_a       4.90399
_cell_length_b       5.555894000000001
_cell_length_c       8.269645510084757
_cell_angle_alpha    72.8917451750904
_cell_angle_beta     90.0
_cell_angle_gamma    90.0

_space_group_name_H-M_alt    "P 1"
_space_group_IT_number       1

loop_
  _space_group_symop_operation_xyz
  'x, y, z'

loop_
  _atom_site_type_symbol
  _atom_site_label
  _atom_site_symmetry_multiplicity
  _atom_site_fract_x
  _atom_site_fract_y
  _atom_site_fract_z
  _atom_site_occupancy
  Li  Li1       1.0  0.4044493460096419  0.9220274449326098  0.5882537497673184  1.0000
  Li  Li2       1.0  0.6497904695570469  0.21224224055185914  0.4176945658400655  1.0000
  Li  Li3       1.0  0.19257513480260968  0.5319885470671579  0.5314602139405906  1.0000
  Li  Li4       1.0  0.5717954728752375  0.8683801770675927  0.01795185636729002  1.0000
  H   H1        1.0  0.7359755970537663  0.43898642621934414  0.6299419876886532  1.0000
  H   H2        1.0  0.6268648728728294  0.3633831515908241  0.21616898302454501  1.0000
  H   H3        1.0  0.4937121095135808  0.8992850929498672  0.2782623404636979  1.0000
  H   H4        1.0  0.09107889980077744  0.6168394726701081  0.011213020887225866  1.0000
  S   S1        1.0  0.4167859066510573  0.8678152891807258  0.28223570669069886  1.0000
  S   S2        1.0  0.04297874355688691  0.6874360342044383  0.9860713427187875  1.0000
  O   O1        1.0  0.6065729381516576  0.6890009480994195  0.12891674088314176  1.0000
  O   O2        1.0  0.9323652610182762  0.5416264204541221  0.10943181277252734  1.0000
  O   O3        1.0  0.6454424995463341  0.7069017491885461  0.38415541290305555  1.0000
  O   O4        1.0  0.6811123010702431  0.9150219119619578  0.6510711782320868  1.0000
  O   O5        1.0  0.8705588809680194  0.7812319126969669  0.8371655201772228  1.0000
  O   O6        1.0  0.046605067793279886  0.7350679433438927  0.5633823566604406  1.0000
  O   O7        1.0  0.966394130489789  0.7963198223151267  0.07239655494049657  1.0000
  O   O8        1.0  0.46862388122826815  0.28481626068241894  0.4525870167417452  1.0000
  O   O9        1.0  0.7094990476034582  0.797768868971616  0.6492004473693669  1.0000
  O   O10       1.0  0.7040707571431994  0.6708020347869024  0.28551359684206545  1.0000
data_image193
_chemical_formula_structural       Li4H4S2O10
_chemical_formula_sum              "Li4 H4 S2 O10"
_cell_length_a       4.90399
_cell_length_b       5.555894000000001
_cell_length_c       8.269645510084757
_cell_angle_alpha    72.8917451750904
_cell_angle_beta     90.0
_cell_angle_gamma    90.0

_space_group_name_H-M_alt    "P 1"
_space_group_IT_number       1

loop_
  _space_group_symop_operation_xyz
  'x, y, z'

loop_
  _atom_site_type_symbol
  _atom_site_label
  _atom_site_symmetry_multiplicity
  _atom_site_fract_x
  _atom_site_fract_y
  _atom_site_fract_z
  _atom_site_occupancy
  Li  Li1       1.0  0.3904581523966044  0.5618136648554355  0.3987747661303729  1.0000
  Li  Li2       1.0  0.9576902650296688  0.3842895203270018  0.6161576379090548  1.0000
  Li  Li3       1.0  0.06556679541245103  0.876810574089177  0.3386301654390991  1.0000
  Li  Li4       1.0  0.5962668415158987  0.39165903138928115  0.629705885774456  1.0000
  H   H1        1.0  0.6740329097956419  0.8749138740822673  0.6913713866379112  1.0000
  H   H2        1.0  0.19685833901166916  0.5143315470777452  0.6366287403798196  1.0000
  H   H3        1.0  0.5141872372478247  0.2030650358647108  0.6404067477560602  1.0000
  H   H4        1.0  0.3874839534983039  0.738487602211535  0.12991167325526476  1.0000
  S   S1        1.0  0.72259756555286  0.0015469640493392944  0.16456513875164092  1.0000
  S   S2        1.0  0.9857900752685964  0.7078235495719127  0.15816914176684804  1.0000
  O   O1        1.0  0.467021272983402  0.7192720286548138  0.19218386593274772  1.0000
  O   O2        1.0  0.5486633097752929  0.45318228111136705  0.3249537303345278  1.0000
  O   O3        1.0  0.9766256310977042  0.15102051862049848  0.8630432691425085  1.0000
  O   O4        1.0  0.5667967016343027  0.5705088789109141  0.35987155346083455  1.0000
  O   O5        1.0  0.49309221492148936  0.880911854095757  0.7300240924814716  1.0000
  O   O6        1.0  0.9181631114333868  0.5932586523704231  0.1012094805482775  1.0000
  O   O7        1.0  0.8954508638707921  0.9667067467235029  0.9671400230072322  1.0000
  O   O8        1.0  0.8952444875612855  0.9422864555381238  0.7867361407843418  1.0000
  O   O9        1.0  0.22855464974418283  0.4379470911808312  0.8979316360782832  1.0000
  O   O10       1.0  0.8296219194307923  0.47725248348433524  0.9646968983579427  1.0000
data_image194
_chemical_formula_structural       Li4H4S2O10
_chemical_formula_sum              "Li4 H4 S2 O10"
_cell_length_a       4.90399
_cell_length_b       5.555894000000001
_cell_length_c       8.269645510084757
_cell_angle_alpha    72.8917451750904
_cell_angle_beta     90.0
_cell_angle_gamma    90.0

_space_group_name_H-M_alt    "P 1"
_space_group_IT_number       1

loop_
  _space_group_symop_operation_xyz
  'x, y, z'

loop_
  _atom_site_type_symbol
  _atom_site_label
  _atom_site_symmetry_multiplicity
  _atom_site_fract_x
  _atom_site_fract_y
  _atom_site_fract_z
  _atom_site_occupancy
  Li  Li1       1.0  0.38301477185450494  0.0072669824585318565  0.69844666775316  1.0000
  Li  Li2       1.0  0.9394781701266766  0.21755884867161512  0.3485645391047001  1.0000
  Li  Li3       1.0  0.3749716328456998  0.6604692979017273  0.5396363362669945  1.0000
  Li  Li4       1.0  0.932166026905179  0.08479560655541718  0.22564016445539892  1.0000
  H   H1        1.0  0.8673102497123182  0.6876597087830305  0.10049083305057138  1.0000
  H   H2        1.0  0.48026759922504425  0.14887642115354538  0.4548862857045606  1.0000
  H   H3        1.0  0.3099404238164425  0.611510643735528  0.3469937938498333  1.0000
  H   H4        1.0  0.9408298176713288  0.6690660696476698  0.7832351657561958  1.0000
  S   S1        1.0  0.20853729436566937  0.41700313496403396  0.08111666864715517  1.0000
  S   S2        1.0  0.6459268620237708  0.358798629429657  0.8109399701352231  1.0000
  O   O1        1.0  0.8768761097453535  0.8812498642364517  0.5942894830368459  1.0000
  O   O2        1.0  0.5798895605839789  0.7529327743686736  0.652397241210565  1.0000
  O   O3        1.0  0.4674535153899342  0.5084445100510493  0.5101051146630198  1.0000
  O   O4        1.0  0.9195338754216209  0.019442049087956548  0.8491766923107207  1.0000
  O   O5        1.0  0.9300356692401692  0.7562543646199629  0.1211506089894101  1.0000
  O   O6        1.0  0.45779329910874367  0.6122898121830076  0.47469665855169296  1.0000
  O   O7        1.0  0.04493131337221712  0.24943706416524947  0.050416850521287415  1.0000
  O   O8        1.0  0.38707712665200233  0.5671099056489766  0.30838290485553443  1.0000
  O   O9        1.0  0.6150348368100822  0.05058169271796942  0.08392058627214283  1.0000
  O   O10       1.0  0.3426232095807791  0.35531872374849627  0.6132280379533768  1.0000
data_image195
_chemical_formula_structural       Li4H4S2O10
_chemical_formula_sum              "Li4 H4 S2 O10"
_cell_length_a       4.90399
_cell_length_b       5.555894000000001
_cell_length_c       8.269645510084757
_cell_angle_alpha    72.8917451750904
_cell_angle_beta     90.0
_cell_angle_gamma    90.0

_space_group_name_H-M_alt    "P 1"
_space_group_IT_number       1

loop_
  _space_group_symop_operation_xyz
  'x, y, z'

loop_
  _atom_site_type_symbol
  _atom_site_label
  _atom_site_symmetry_multiplicity
  _atom_site_fract_x
  _atom_site_fract_y
  _atom_site_fract_z
  _atom_site_occupancy
  Li  Li1       1.0  0.3238864882150665  0.576350950403139  0.8667984756175429  1.0000
  Li  Li2       1.0  0.8750447183847427  0.24214448244310915  0.8725722711533308  1.0000
  Li  Li3       1.0  0.15512159862555563  0.9857086292468011  0.27343134535476565  1.0000
  Li  Li4       1.0  0.2596553098410368  0.5672313233371824  0.9399705110117793  1.0000
  H   H1        1.0  0.6432732916437089  0.4302253760397434  0.7332534291781485  1.0000
  H   H2        1.0  0.052531637251377106  0.6265781400725245  0.9691858193837106  1.0000
  H   H3        1.0  0.1633362816646695  0.14793533831834793  0.49929197190795094  1.0000
  H   H4        1.0  0.5080476179718971  0.008487391285598278  0.06261193379759789  1.0000
  S   S1        1.0  0.09302438985469053  0.40062061906792223  0.4423723230138421  1.0000
  S   S2        1.0  0.5926525723189116  0.38361093029379845  0.25466584332752973  1.0000
  O   O1        1.0  0.6556618786416948  0.8327265055850148  0.8191506145521998  1.0000
  O   O2        1.0  0.772135425824672  0.9890878882724792  0.6194238195312209  1.0000
  O   O3        1.0  0.7419357738690451  0.114604715956375  0.10399313108064234  1.0000
  O   O4        1.0  0.43850915785878897  0.09867367893457413  0.5828245553420857  1.0000
  O   O5        1.0  0.7123486321652308  0.003790160466451198  0.7784149304497987  1.0000
  O   O6        1.0  0.4215480852872133  0.8275926131755114  0.6618484379723668  1.0000
  O   O7        1.0  0.6367474755970761  0.5399905897211283  0.8884776867416804  1.0000
  O   O8        1.0  0.3109563793987036  0.9555748591665179  0.0615748445270583  1.0000
  O   O9        1.0  0.37305578170344234  0.3926275451667607  0.049810252035968006  1.0000
  O   O10       1.0  0.2501116069033742  0.6545419033209328  0.09690427430905402  1.0000
data_image196
_chemical_formula_structural       Li4H4S2O10
_chemical_formula_sum              "Li4 H4 S2 O10"
_cell_length_a       4.90399
_cell_length_b       5.555894000000001
_cell_length_c       8.269645510084757
_cell_angle_alpha    72.8917451750904
_cell_angle_beta     90.0
_cell_angle_gamma    90.0

_space_group_name_H-M_alt    "P 1"
_space_group_IT_number       1

loop_
  _space_group_symop_operation_xyz
  'x, y, z'

loop_
  _atom_site_type_symbol
  _atom_site_label
  _atom_site_symmetry_multiplicity
  _atom_site_fract_x
  _atom_site_fract_y
  _atom_site_fract_z
  _atom_site_occupancy
  Li  Li1       1.0  0.9192704587476328  0.9670300411526114  0.8450226916465908  1.0000
  Li  Li2       1.0  0.09739742055535316  0.4993394110351801  0.2713433289900422  1.0000
  Li  Li3       1.0  0.2673437886405736  0.2694660087581724  0.3561055944301188  1.0000
  Li  Li4       1.0  0.5386734316125512  0.4619850553572178  0.17352652759291232  1.0000
  H   H1        1.0  0.1353377541527152  0.05067146196961403  0.3822126182494685  1.0000
  H   H2        1.0  0.17217242810875177  0.49236707855015993  0.2947862970759161  1.0000
  H   H3        1.0  0.5869261408224702  0.4042861554771662  0.448470032424666  1.0000
  H   H4        1.0  0.0033710990101099014  0.6471449267119169  0.3986925589852035  1.0000
  S   S1        1.0  0.17410171392839402  0.8926382875069976  0.24104590550996363  1.0000
  S   S2        1.0  0.9253431879915297  0.3836266169673763  0.38713475863914937  1.0000
  O   O1        1.0  0.4537815498188138  0.4887827436905354  0.7066894047893584  1.0000
  O   O2        1.0  0.5236509717069566  0.1327956368913874  0.526629181636963  1.0000
  O   O3        1.0  0.1495921182213351  0.7979937121272087  0.9650154612027109  1.0000
  O   O4        1.0  0.30245815636590123  0.2775089165661484  0.6812226641341113  1.0000
  O   O5        1.0  0.10420496168080717  0.598099987837486  0.7989926048321649  1.0000
  O   O6        1.0  0.7338978629559278  0.02921872097067535  0.45017387229017913  1.0000
  O   O7        1.0  0.6111111252103001  0.4280990418046713  0.5877114821560099  1.0000
  O   O8        1.0  0.8585724583826959  0.7117927887011319  0.8995743151754141  1.0000
  O   O9        1.0  0.9072377169504762  0.5324026849120855  0.42718164867255837  1.0000
  O   O10       1.0  0.03611656744033098  0.062048538064118475  0.6221374059095979  1.0000
data_image197
_chemical_formula_structural       Li4H4S2O10
_chemical_formula_sum              "Li4 H4 S2 O10"
_cell_length_a       4.90399
_cell_length_b       5.555894000000001
_cell_length_c       8.269645510084757
_cell_angle_alpha    72.8917451750904
_cell_angle_beta     90.0
_cell_angle_gamma    90.0

_space_group_name_H-M_alt    "P 1"
_space_group_IT_number       1

loop_
  _space_group_symop_operation_xyz
  'x, y, z'

loop_
  _atom_site_type_symbol
  _atom_site_label
  _atom_site_symmetry_multiplicity
  _atom_site_fract_x
  _atom_site_fract_y
  _atom_site_fract_z
  _atom_site_occupancy
  Li  Li1       1.0  0.08351142425090075  0.6079809854272753  0.9462738290894777  1.0000
  Li  Li2       1.0  0.9309285841882229  0.6706854603253305  0.5555584328249097  1.0000
  Li  Li3       1.0  0.3636422329582274  0.6884220551000908  0.41754559148103  1.0000
  Li  Li4       1.0  0.35902783554047346  0.578013994731009  0.6903251039329916  1.0000
  H   H1        1.0  0.9499725936912  0.4175117798149586  0.8963960323017091  1.0000
  H   H2        1.0  0.2937290407717228  0.05518006253987551  0.9683296310831793  1.0000
  H   H3        1.0  0.754687687382102  0.17092905193567276  0.34207117499317974  1.0000
  H   H4        1.0  0.8971465909853578  0.08073583757504821  0.19121617916971445  1.0000
  S   S1        1.0  0.6777872957172804  0.7907414461951703  0.4439697207417339  1.0000
  S   S2        1.0  0.9484610259532928  0.8450366969918832  0.6732677719555795  1.0000
  O   O1        1.0  0.8136093434877694  0.3174622319638729  0.48423280008137226  1.0000
  O   O2        1.0  0.369358635507524  0.8113190999720246  0.9368894512881525  1.0000
  O   O3        1.0  0.9625919020036235  0.5385209164815024  0.8635531177278608  1.0000
  O   O4        1.0  0.787218252546154  0.5668676311615855  0.42646695210714824  1.0000
  O   O5        1.0  0.4381223786622286  0.15730489914130885  0.5566745472606272  1.0000
  O   O6        1.0  0.5057215737178922  0.320890489500016  0.5261518752668053  1.0000
  O   O7        1.0  0.46783308940939605  0.49429602758027613  0.9453847444747225  1.0000
  O   O8        1.0  0.6871324926614761  0.31329334317706525  0.13547640250180848  1.0000
  O   O9        1.0  0.33813686668872833  0.10939822159707546  0.3617279848549515  1.0000
  O   O10       1.0  0.3054556446149945  0.007008657441474497  0.9266991000622511  1.0000
data_image198
_chemical_formula_structural       Li4H4S2O10
_chemical_formula_sum              "Li4 H4 S2 O10"
_cell_length_a       4.90399
_cell_length_b       5.555894000000001
_cell_length_c       8.269645510084757
_cell_angle_alpha    72.8917451750904
_cell_angle_beta     90.0
_cell_angle_gamma    90.0

_space_group_name_H-M_alt    "P 1"
_space_group_IT_number       1

loop_
  _space_group_symop_operation_xyz
  'x, y, z'

loop_
  _atom_site_type_symbol
  _atom_site_label
  _atom_site_symmetry_multiplicity
  _atom_site_fract_x
  _atom_site_fract_y
  _atom_site_fract_z
  _atom_site_occupancy
  Li  Li1       1.0  0.1737093353876844  0.4487074201460928  0.7126950710080564  1.0000
  Li  Li2       1.0  0.6638416722416878  0.14703600015491247  0.6316081201657653  1.0000
  Li  Li3       1.0  0.9199378362391144  0.34105727332644165  0.18118433188647032  1.0000
  Li  Li4       1.0  0.26094703655689955  0.3529249499551952  0.434126126463525  1.0000
  H   H1        1.0  0.7957823742181063  0.5030967462807894  0.33903240761719644  1.0000
  H   H2        1.0  0.5468838838860393  0.7724061943590641  0.8966619478305802  1.0000
  H   H3        1.0  0.388698099181056  0.5825778320431709  0.823976744315587  1.0000
  H   H4        1.0  0.08246200904250145  0.504088394343853  0.1907696039415896  1.0000
  S   S1        1.0  0.10147054084518459  0.2691945943515748  0.7729564018081874  1.0000
  S   S2        1.0  0.8120538895018399  0.35437884484417737  0.6579218179685995  1.0000
  O   O1        1.0  0.5175588540732861  0.9587485932279378  0.605319935362786  1.0000
  O   O2        1.0  0.278607745654881  0.9045499396743253  0.021987155661918223  1.0000
  O   O3        1.0  0.17956565867643803  0.032477582222782075  0.6176942056044936  1.0000
  O   O4        1.0  0.5627917551901191  0.716309150448069  0.3834044720570091  1.0000
  O   O5        1.0  0.8388826013542712  0.9832828321959823  0.9405556720448658  1.0000
  O   O6        1.0  0.0333353653550148  0.38143638987094164  0.6967849140055478  1.0000
  O   O7        1.0  0.2464969048742205  0.7757667119149119  0.8851709826740262  1.0000
  O   O8        1.0  0.6494000758975744  0.5727847563102841  0.12320897201425396  1.0000
  O   O9        1.0  0.34747000830248  0.7123784581199288  0.020981436362490058  1.0000
  O   O10       1.0  0.9454556619748473  0.04197124112397432  0.5131534826941788  1.0000
data_image199
_chemical_formula_structural       Li4H4S2O10
_chemical_formula_sum              "Li4 H4 S2 O10"
_cell_length_a       4.90399
_cell_length_b       5.555894000000001
_cell_length_c       8.269645510084757
_cell_angle_alpha    72.8917451750904
_cell_angle_beta     90.0
_cell_angle_gamma    90.0

_space_group_name_H-M_alt    "P 1"
_space_group_IT_number       1

loop_
  _space_group_symop_operation_xyz
  'x, y, z'

loop_
  _atom_site_type_symbol
  _atom_site_label
  _atom_site_symmetry_multiplicity
  _atom_site_fract_x
  _atom_site_fract_y
  _atom_site_fract_z
  _atom_site_occupancy
  Li  Li1       1.0  0.9088844514917582  0.3421977183315903  0.7396923082415015  1.0000
  Li  Li2       1.0  0.3073064126074314  0.16330904001370072  0.6342676766216755  1.0000
  Li  Li3       1.0  0.7212772152852267  0.7669315920211375  0.13095899671316147  1.0000
  Li  Li4       1.0  0.1570209339261055  0.6271200873889029  0.7237126033287495  1.0000
  H   H1        1.0  0.003925590310245752  0.6375572644174099  0.14211842324584723  1.0000
  H   H2        1.0  0.9811329930089414  0.8327140845358372  0.9197811048361473  1.0000
  H   H3        1.0  0.23432162404060364  0.8056959696114063  0.7351634750375524  1.0000
  H   H4        1.0  0.03204813040792942  0.4959468049928546  0.6298004230484366  1.0000
  S   S1        1.0  0.3769725229794858  0.821527433115989  0.7406234978698194  1.0000
  S   S2        1.0  0.7024685656651855  0.3925544695230201  0.641502927755937  1.0000
  O   O1        1.0  0.5848865052685142  0.812450971105136  0.5362769430503249  1.0000
  O   O2        1.0  0.0522109386511147  0.8506034078309312  0.728025103919208  1.0000
  O   O3        1.0  0.9420004729181528  0.9181191746611148  0.48306705499999225  1.0000
  O   O4        1.0  0.04296146868728101  0.8768128172960132  0.11467832149355672  1.0000
  O   O5        1.0  0.5961551119107753  0.9657792092184536  0.40718227345496416  1.0000
  O   O6        1.0  0.47291511483490467  0.18181119486689568  0.14512497116811574  1.0000
  O   O7        1.0  0.20286917337216437  0.10186401451937854  0.6776260403876222  1.0000
  O   O8        1.0  0.21067703375592828  0.8492803936824203  0.6633244446711615  1.0000
  O   O9        1.0  0.14930530404672027  0.3068118547089398  0.8756563866045326  1.0000
  O   O10       1.0  0.029460481368005276  0.4436672775191255  0.8310712643433362  1.0000
data_image200
_chemical_formula_structural       Li4H4S2O10
_chemical_formula_sum              "Li4 H4 S2 O10"
_cell_length_a       4.90399
_cell_length_b       5.555894000000001
_cell_length_c       8.269645510084757
_cell_angle_alpha    72.8917451750904
_cell_angle_beta     90.0
_cell_angle_gamma    90.0

_space_group_name_H-M_alt    "P 1"
_space_group_IT_number       1

loop_
  _space_group_symop_operation_xyz
  'x, y, z'

loop_
  _atom_site_type_symbol
  _atom_site_label
  _atom_site_symmetry_multiplicity
  _atom_site_fract_x
  _atom_site_fract_y
  _atom_site_fract_z
  _atom_site_occupancy
  Li  Li1       1.0  0.4116278699366376  0.7964664227329195  0.6488659351598471  1.0000
  Li  Li2       1.0  0.06850755959749222  0.5968937349971384  0.8415221823379397  1.0000
  Li  Li3       1.0  0.06596532464027405  0.13301288103684783  0.9040154982358217  1.0000
  Li  Li4       1.0  0.9977732580155134  0.8333606396336108  0.5440186116611585  1.0000
  H   H1        1.0  0.2065435633994639  0.5176104297861457  0.3852868811227381  1.0000
  H   H2        1.0  0.0636248355731368  0.2757366420701146  0.7410661548492499  1.0000
  H   H3        1.0  0.9153270348906517  0.2305616158992052  0.8499546308303252  1.0000
  H   H4        1.0  0.2604270479641855  0.8107274435460567  0.8932226235046983  1.0000
  S   S1        1.0  0.054264656399027444  0.30246923095546663  0.5012663342058659  1.0000
  S   S2        1.0  0.598938686773181  0.21836745436303318  0.010149341425858438  1.0000
  O   O1        1.0  0.27547168638557196  0.49537684163078666  0.3982597265858203  1.0000
  O   O2        1.0  0.3137877224944532  0.7412085868418217  0.5889554293826222  1.0000
  O   O3        1.0  0.060310986707918346  0.6781045724637806  0.3180956528522074  1.0000
  O   O4        1.0  0.2632508029928431  0.7054120204411447  0.04707277972192969  1.0000
  O   O5        1.0  0.19764312531333417  0.6701279485278064  0.5543204478453845  1.0000
  O   O6        1.0  0.23290027491748333  0.471441478934139  0.07241538353264332  1.0000
  O   O7        1.0  0.8299932195805013  0.31168090901337564  0.7895415906295966  1.0000
  O   O8        1.0  0.620520974509418  0.46090381080284715  0.12494450487429276  1.0000
  O   O9        1.0  0.9645847803913057  0.4777543335221708  0.9418522382620722  1.0000
  O   O10       1.0  0.09498116560280323  0.9659841682878323  0.05663920775987208  1.0000
