data_image0
_chemical_formula_structural       Mg2C8O12
_chemical_formula_sum              "Mg2 C8 O12"
_cell_length_a       7.872530813609877
_cell_length_b       7.872530813609877
_cell_length_c       7.368803275525341
_cell_angle_alpha    62.34925540174321
_cell_angle_beta     62.34925540174321
_cell_angle_gamma    54.72736521231912

_space_group_name_H-M_alt    "P 1"
_space_group_IT_number       1

loop_
  _space_group_symop_operation_xyz
  'x, y, z'

loop_
  _atom_site_type_symbol
  _atom_site_label
  _atom_site_symmetry_multiplicity
  _atom_site_fract_x
  _atom_site_fract_y
  _atom_site_fract_z
  _atom_site_occupancy
  Mg  Mg1       1.0  0.5  0.0  0.4999999999999999  1.0000
  Mg  Mg2       1.0  8.307696117170329e-17  0.4999999999999999  0.0  1.0000
  C   C1        1.0  0.9263100000000002  0.156559  0.660789  1.0000
  C   C2        1.0  0.843441  0.07368999999999994  0.8392109999999998  1.0000
  C   C3        1.0  0.07369000000000005  0.843441  0.33921099999999993  1.0000
  C   C4        1.0  0.1565590000000002  0.9263099999999999  0.16078900000000004  1.0000
  C   C5        1.0  0.021928999999999994  0.251237  0.44523499999999994  1.0000
  C   C6        1.0  0.7487630000000004  0.9780709999999997  0.05476499999999997  1.0000
  C   C7        1.0  0.9780710000000002  0.7487629999999998  0.5547649999999998  1.0000
  C   C8        1.0  0.25123700000000004  0.021928999999999997  0.9452349999999999  1.0000
  O   O1        1.0  0.20935700000000004  0.2312219999999999  0.40529799999999994  1.0000
  O   O2        1.0  0.7687780000000003  0.7906429999999998  0.09470200000000016  1.0000
  O   O3        1.0  0.7906430000000001  0.7687779999999997  0.5947019999999997  1.0000
  O   O4        1.0  0.23122200000000012  0.209357  0.9052979999999997  1.0000
  O   O5        1.0  0.915378  0.34546699999999986  0.31286799999999987  1.0000
  O   O6        1.0  0.654533  0.08462199999999998  0.1871319999999999  1.0000
  O   O7        1.0  0.08462200000000021  0.6545329999999998  0.687132  1.0000
  O   O8        1.0  0.34546700000000014  0.915378  0.8128679999999997  1.0000
  O   O9        1.0  0.5216970000000003  0.7536629999999997  0.4220649999999999  1.0000
  O   O10       1.0  0.24633700000000008  0.47830299999999987  0.07793499999999999  1.0000
  O   O11       1.0  0.47830300000000014  0.24633699999999994  0.5779349999999996  1.0000
  O   O12       1.0  0.7536630000000002  0.5216969999999999  0.9220649999999999  1.0000
data_image1
_chemical_formula_structural       Mg2C8O12
_chemical_formula_sum              "Mg2 C8 O12"
_cell_length_a       7.872530813609877
_cell_length_b       7.872530813609877
_cell_length_c       7.368803275525341
_cell_angle_alpha    62.34925540174321
_cell_angle_beta     62.34925540174321
_cell_angle_gamma    54.72736521231912

_space_group_name_H-M_alt    "P 1"
_space_group_IT_number       1

loop_
  _space_group_symop_operation_xyz
  'x, y, z'

loop_
  _atom_site_type_symbol
  _atom_site_label
  _atom_site_symmetry_multiplicity
  _atom_site_fract_x
  _atom_site_fract_y
  _atom_site_fract_z
  _atom_site_occupancy
  Mg  Mg1       1.0  0.5343227613402632  0.9574766559927571  0.544467055249104  1.0000
  Mg  Mg2       1.0  0.007016046766344581  0.5344912133102171  0.9738595857824404  1.0000
  C   C1        1.0  0.8606562703244177  0.21374860321708153  0.6708587892026633  1.0000
  C   C2        1.0  0.8547983336993169  0.09077091104570476  0.8601855490901947  1.0000
  C   C3        1.0  0.0671981046871235  0.8219903271103864  0.33047090941585  1.0000
  C   C4        1.0  0.17086943265515048  0.8873813783982396  0.15695270278577636  1.0000
  C   C5        1.0  0.9787788579562334  0.23842984905043305  0.46131276995530546  1.0000
  C   C6        1.0  0.7489595159445253  0.9889044866804997  0.030284366987603173  1.0000
  C   C7        1.0  0.006044052732368854  0.7167071108532981  0.5627775561500103  1.0000
  C   C8        1.0  0.21454014164626606  0.024854452299478916  0.9454390234817552  1.0000
  O   O1        1.0  0.17222590761922094  0.21442153078526682  0.37016648737233504  1.0000
  O   O2        1.0  0.7321418282629291  0.8399217065238045  0.017475521755151914  1.0000
  O   O3        1.0  0.796785532492687  0.7981810688460158  0.622736461149358  1.0000
  O   O4        1.0  0.22879821431703914  0.18974044730806397  0.9408308056041866  1.0000
  O   O5        1.0  0.8421971888717406  0.3177002726379304  0.33632181738060296  1.0000
  O   O6        1.0  0.6922939465389759  0.9924791263553989  0.2222444413632474  1.0000
  O   O7        1.0  0.14874052620709394  0.6188240126252961  0.6608714025909219  1.0000
  O   O8        1.0  0.264221745647806  0.9932480821607366  0.7655055106910598  1.0000
  O   O9        1.0  0.6204922577420515  0.7469154625295087  0.36869556050956104  1.0000
  O   O10       1.0  0.26315805370681894  0.5396185892969184  0.017219550651735596  1.0000
  O   O11       1.0  0.5061461284054993  0.23286572540269446  0.6364104056193368  1.0000
  O   O12       1.0  0.7429349970087572  0.5408097464314248  0.9988767088574233  1.0000
data_image2
_chemical_formula_structural       Mg2C8O12
_chemical_formula_sum              "Mg2 C8 O12"
_cell_length_a       7.872530813609877
_cell_length_b       7.872530813609877
_cell_length_c       7.368803275525341
_cell_angle_alpha    62.34925540174321
_cell_angle_beta     62.34925540174321
_cell_angle_gamma    54.72736521231912

_space_group_name_H-M_alt    "P 1"
_space_group_IT_number       1

loop_
  _space_group_symop_operation_xyz
  'x, y, z'

loop_
  _atom_site_type_symbol
  _atom_site_label
  _atom_site_symmetry_multiplicity
  _atom_site_fract_x
  _atom_site_fract_y
  _atom_site_fract_z
  _atom_site_occupancy
  Mg  Mg1       1.0  0.5643336130004819  0.9946004877084055  0.5463686000860392  1.0000
  Mg  Mg2       1.0  0.9466316027568236  0.503986774364928  0.9881360292190894  1.0000
  C   C1        1.0  0.9356175859295364  0.22362172442959452  0.6841169557863586  1.0000
  C   C2        1.0  0.8372523635685359  0.10389977414829112  0.7778800776137665  1.0000
  C   C3        1.0  0.9924215299350803  0.8077715664799902  0.3041001366737362  1.0000
  C   C4        1.0  0.06910618251368696  0.9658654167732325  0.16782019547273244  1.0000
  C   C5        1.0  0.9942600759920693  0.2631789085444851  0.44559662445837456  1.0000
  C   C6        1.0  0.7286939947603912  0.0029646728337624495  0.9908056643080575  1.0000
  C   C7        1.0  0.9684483242439498  0.7194831027235448  0.5486870376356225  1.0000
  C   C8        1.0  0.20631495398157462  0.05803979512527332  0.9736035707964917  1.0000
  O   O1        1.0  0.18974425807936704  0.23978464927070187  0.35892090247833  1.0000
  O   O2        1.0  0.7405616340065643  0.8313430233840742  0.012976153434947376  1.0000
  O   O3        1.0  0.8806280007123389  0.8597969609946463  0.6340183425570762  1.0000
  O   O4        1.0  0.266000093646003  0.19343815048929208  0.9373589385535868  1.0000
  O   O5        1.0  0.8725287155730187  0.3046634211301545  0.34305790101054845  1.0000
  O   O6        1.0  0.6698623420896472  0.06930253435617127  0.15371468809941743  1.0000
  O   O7        1.0  0.005144025866511357  0.52021210225865  0.6350614487130949  1.0000
  O   O8        1.0  0.30621629404908207  0.9526765104843989  0.8278425882735878  1.0000
  O   O9        1.0  0.8483626331281288  0.801864058505288  0.29681364481067435  1.0000
  O   O10       1.0  0.1350160755022363  0.46281355476382485  0.1649872197408051  1.0000
  O   O11       1.0  0.5354336860553479  0.28572412598855984  0.5560037497075004  1.0000
  O   O12       1.0  0.7331842636478118  0.3710917959185489  0.10790494365365899  1.0000
data_image3
_chemical_formula_structural       Mg2C8O12
_chemical_formula_sum              "Mg2 C8 O12"
_cell_length_a       7.872530813609877
_cell_length_b       7.872530813609877
_cell_length_c       7.368803275525341
_cell_angle_alpha    62.34925540174321
_cell_angle_beta     62.34925540174321
_cell_angle_gamma    54.72736521231912

_space_group_name_H-M_alt    "P 1"
_space_group_IT_number       1

loop_
  _space_group_symop_operation_xyz
  'x, y, z'

loop_
  _atom_site_type_symbol
  _atom_site_label
  _atom_site_symmetry_multiplicity
  _atom_site_fract_x
  _atom_site_fract_y
  _atom_site_fract_z
  _atom_site_occupancy
  Mg  Mg1       1.0  0.5154978716407804  0.11994568038534704  0.5461776352566294  1.0000
  Mg  Mg2       1.0  0.0226858616395032  0.3836764010684507  0.01610789363420175  1.0000
  C   C1        1.0  0.9087982212199995  0.19433322290066987  0.6463336881488789  1.0000
  C   C2        1.0  0.7287348503941924  0.21721828690005598  0.7147995769330168  1.0000
  C   C3        1.0  0.9984539742152138  0.7886876981731002  0.2627038344512715  1.0000
  C   C4        1.0  0.1919570226183286  0.7685743352147401  0.17717945156493053  1.0000
  C   C5        1.0  0.9459689690633922  0.33938108131265  0.4767600687153506  1.0000
  C   C6        1.0  0.6463974316625773  0.0645722801205082  0.9465081111511084  1.0000
  C   C7        1.0  0.9913333267231031  0.7270952690798571  0.5109195443898856  1.0000
  C   C8        1.0  0.2807050725802823  0.9139373132216756  0.0032656512964315265  1.0000
  O   O1        1.0  0.18293560908957945  0.2936354876608678  0.44376644137928434  1.0000
  O   O2        1.0  0.5926053668533221  0.932385471331181  0.003918425897657202  1.0000
  O   O3        1.0  0.825363850540502  0.89141643670892  0.5807448222989934  1.0000
  O   O4        1.0  0.2802350760392742  0.07829010232631094  0.9851519899760649  1.0000
  O   O5        1.0  0.8650441005337636  0.44091759928254654  0.32369788045980524  1.0000
  O   O6        1.0  0.4653795655543681  0.29108045195775656  0.08145884711436008  1.0000
  O   O7        1.0  0.0559262339376279  0.5631723072823621  0.6483553293356838  1.0000
  O   O8        1.0  0.38448381922417246  0.8560931162725869  0.8159614422311852  1.0000
  O   O9        1.0  0.820319995412254  0.8319558769025168  0.28574420622250024  1.0000
  O   O10       1.0  0.2456353870525379  0.382706697596844  0.19153310713277508  1.0000
  O   O11       1.0  0.5672155807691853  0.27278424372713894  0.6374721261318291  1.0000
  O   O12       1.0  0.8852735903982097  0.14996195147528352  0.10458606434762063  1.0000
data_image4
_chemical_formula_structural       Mg2C8O12
_chemical_formula_sum              "Mg2 C8 O12"
_cell_length_a       7.872530813609877
_cell_length_b       7.872530813609877
_cell_length_c       7.368803275525341
_cell_angle_alpha    62.34925540174321
_cell_angle_beta     62.34925540174321
_cell_angle_gamma    54.72736521231912

_space_group_name_H-M_alt    "P 1"
_space_group_IT_number       1

loop_
  _space_group_symop_operation_xyz
  'x, y, z'

loop_
  _atom_site_type_symbol
  _atom_site_label
  _atom_site_symmetry_multiplicity
  _atom_site_fract_x
  _atom_site_fract_y
  _atom_site_fract_z
  _atom_site_occupancy
  Mg  Mg1       1.0  0.5000532099749309  0.01984448409064779  0.5607316023266812  1.0000
  Mg  Mg2       1.0  0.10199249520613086  0.3765661205706968  0.034167504845119226  1.0000
  C   C1        1.0  0.718843404033824  0.3499955150950712  0.6535558536465362  1.0000
  C   C2        1.0  0.6219193721683126  0.21038299402205352  0.7027084169868671  1.0000
  C   C3        1.0  0.030959564308619167  0.7663268759941922  0.3350898807221391  1.0000
  C   C4        1.0  0.24479953755629108  0.7293992675799342  0.16256019312219325  1.0000
  C   C5        1.0  0.9567175590772413  0.33052825844769396  0.5051530397843426  1.0000
  C   C6        1.0  0.7193836097921386  0.034201533377653304  0.9640627062690842  1.0000
  C   C7        1.0  0.9882718659475869  0.7483828098801983  0.5616091799053745  1.0000
  C   C8        1.0  0.2668034310068765  0.9154924217966909  0.9705649309585419  1.0000
  O   O1        1.0  0.07671951025222312  0.32872279583043884  0.5976839748699868  1.0000
  O   O2        1.0  0.6485058987756914  0.9308374341930229  0.04913865033781375  1.0000
  O   O3        1.0  0.7937228960737124  0.8394497379769605  0.6710312291226843  1.0000
  O   O4        1.0  0.17947646065069128  0.11960697087201747  0.977809809603312  1.0000
  O   O5        1.0  0.9308457228752294  0.3307333876258237  0.35629058201073427  1.0000
  O   O6        1.0  0.33664724230671517  0.5463407317569472  0.13821758267024317  1.0000
  O   O7        1.0  0.1580919932718782  0.5917560835063229  0.6501934823293044  1.0000
  O   O8        1.0  0.3469310560310619  0.9080660735677745  0.7842931164358784  1.0000
  O   O9        1.0  0.930353974945338  0.7205034951106212  0.2929593219946539  1.0000
  O   O10       1.0  0.41691034623208195  0.3938165004052117  0.01594193810293284  1.0000
  O   O11       1.0  0.5191129688407891  0.2518040484267572  0.597253149309976  1.0000
  O   O12       1.0  0.8476137113911185  0.1308350612095632  0.8324086762639452  1.0000
data_image5
_chemical_formula_structural       Mg2C8O12
_chemical_formula_sum              "Mg2 C8 O12"
_cell_length_a       7.872530813609877
_cell_length_b       7.872530813609877
_cell_length_c       7.368803275525341
_cell_angle_alpha    62.34925540174321
_cell_angle_beta     62.34925540174321
_cell_angle_gamma    54.72736521231912

_space_group_name_H-M_alt    "P 1"
_space_group_IT_number       1

loop_
  _space_group_symop_operation_xyz
  'x, y, z'

loop_
  _atom_site_type_symbol
  _atom_site_label
  _atom_site_symmetry_multiplicity
  _atom_site_fract_x
  _atom_site_fract_y
  _atom_site_fract_z
  _atom_site_occupancy
  Mg  Mg1       1.0  0.6533637743576979  0.7988735690407552  0.5875313908466795  1.0000
  Mg  Mg2       1.0  0.13618457696205083  0.4029094291808513  0.9723549911064979  1.0000
  C   C1        1.0  0.7744599278994369  0.18067015436569042  0.5385432780402425  1.0000
  C   C2        1.0  0.6170330115560788  0.15054432066703388  0.570206101675712  1.0000
  C   C3        1.0  0.08028144507679238  0.7856139853723787  0.35466166464659393  1.0000
  C   C4        1.0  0.2644088957827386  0.7562863998340377  0.17823908898214472  1.0000
  C   C5        1.0  0.8139373235989298  0.3636751994414166  0.476983339275021  1.0000
  C   C6        1.0  0.7768847832280851  0.9741836046678793  0.014037789371147073  1.0000
  C   C7        1.0  0.057307904818165945  0.6786958295622746  0.5917118584299041  1.0000
  C   C8        1.0  0.24177568908755914  0.9572633952699284  0.024475857933395906  1.0000
  O   O1        1.0  0.7218347364264155  0.48033714860564375  0.6116007192703222  1.0000
  O   O2        1.0  0.5899842834959251  0.10566032439442563  0.10337236949335431  1.0000
  O   O3        1.0  0.882957555708255  0.6883623454715003  0.7070721992293567  1.0000
  O   O4        1.0  0.24336225685462545  0.0964714158593748  0.06920824179238094  1.0000
  O   O5        1.0  0.8769346716644533  0.4724457652548011  0.2842543629489945  1.0000
  O   O6        1.0  0.385005688696542  0.5840650208476393  0.0974768495546206  1.0000
  O   O7        1.0  0.22801983389314628  0.5896494754176778  0.6533182462692185  1.0000
  O   O8        1.0  0.3332083478878668  0.9703228731005382  0.793922501233951  1.0000
  O   O9        1.0  0.9163908501913083  0.8873950430190504  0.27598196327841606  1.0000
  O   O10       1.0  0.31211611349061447  0.580321033276353  0.9409123813682841  1.0000
  O   O11       1.0  0.42154662992480874  0.25133206028227245  0.6012497528143486  1.0000
  O   O12       1.0  0.9316317088903956  0.8597165471254243  0.9579323686495871  1.0000
data_image6
_chemical_formula_structural       Mg2C8O12
_chemical_formula_sum              "Mg2 C8 O12"
_cell_length_a       7.872530813609877
_cell_length_b       7.872530813609877
_cell_length_c       7.368803275525341
_cell_angle_alpha    62.34925540174321
_cell_angle_beta     62.34925540174321
_cell_angle_gamma    54.72736521231912

_space_group_name_H-M_alt    "P 1"
_space_group_IT_number       1

loop_
  _space_group_symop_operation_xyz
  'x, y, z'

loop_
  _atom_site_type_symbol
  _atom_site_label
  _atom_site_symmetry_multiplicity
  _atom_site_fract_x
  _atom_site_fract_y
  _atom_site_fract_z
  _atom_site_occupancy
  Mg  Mg1       1.0  0.6017596713788514  0.5930696166342506  0.8464541147765863  1.0000
  Mg  Mg2       1.0  0.07724717918531675  0.5516851697678447  0.03646735489397831  1.0000
  C   C1        1.0  0.6672679608609678  0.4048717061344071  0.3512398431467358  1.0000
  C   C2        1.0  0.6027237326991903  0.29352783092126666  0.3338946435812922  1.0000
  C   C3        1.0  0.04314891737554768  0.7320623839821169  0.422898576018516  1.0000
  C   C4        1.0  0.21703361903251353  0.778258345419043  0.21997782388118012  1.0000
  C   C5        1.0  0.7416657032833132  0.47784562453341456  0.409486943701283  1.0000
  C   C6        1.0  0.8305673226579843  0.04403987861869685  0.8776670089275951  1.0000
  C   C7        1.0  0.10414191136552575  0.5278429561683088  0.638670206382404  1.0000
  C   C8        1.0  0.28744235675067126  0.9512149347724748  0.06065920466887409  1.0000
  O   O1        1.0  0.616336591265469  0.6378436443128704  0.5058052533145918  1.0000
  O   O2        1.0  0.8244172987678976  0.23703351272846374  0.8088334354237455  1.0000
  O   O3        1.0  0.9413747491002034  0.4950947244775024  0.7747351715937376  1.0000
  O   O4        1.0  0.18096069593589925  0.150452696253304  0.04946087580061431  1.0000
  O   O5        1.0  0.9445321927367889  0.3893243041123347  0.31929881530267473  1.0000
  O   O6        1.0  0.39151299251950317  0.5719099401294903  0.1429660795579142  1.0000
  O   O7        1.0  0.2601009494249362  0.45405995265517207  0.7208073223830693  1.0000
  O   O8        1.0  0.45087632423490237  0.907355647500469  0.9258888675503706  1.0000
  O   O9        1.0  0.8619112691514327  0.8642290033066734  0.40217032225325905  1.0000
  O   O10       1.0  0.30835703302112716  0.5824474832177945  0.9919910685107695  1.0000
  O   O11       1.0  0.5154477498548722  0.20232872400054847  0.34685974468908204  1.0000
  O   O12       1.0  0.8129449541736228  0.8881912774715122  0.9440866762494207  1.0000
data_image7
_chemical_formula_structural       Mg2C8O12
_chemical_formula_sum              "Mg2 C8 O12"
_cell_length_a       7.872530813609877
_cell_length_b       7.872530813609877
_cell_length_c       7.368803275525341
_cell_angle_alpha    62.34925540174321
_cell_angle_beta     62.34925540174321
_cell_angle_gamma    54.72736521231912

_space_group_name_H-M_alt    "P 1"
_space_group_IT_number       1

loop_
  _space_group_symop_operation_xyz
  'x, y, z'

loop_
  _atom_site_type_symbol
  _atom_site_label
  _atom_site_symmetry_multiplicity
  _atom_site_fract_x
  _atom_site_fract_y
  _atom_site_fract_z
  _atom_site_occupancy
  Mg  Mg1       1.0  0.49000316401104854  0.6702086456638695  0.8019203616656582  1.0000
  Mg  Mg2       1.0  0.16074421152770432  0.40483856304563165  0.04518191648670268  1.0000
  C   C1        1.0  0.6945002369374894  0.33066570794860706  0.41488367539687127  1.0000
  C   C2        1.0  0.5797947690548575  0.2412689818309003  0.4679974504988555  1.0000
  C   C3        1.0  0.02948962035931532  0.7741532621902021  0.41017822206202187  1.0000
  C   C4        1.0  0.22133632850171153  0.7368740433345914  0.21384292684162645  1.0000
  C   C5        1.0  0.7061383892731756  0.5235843298742529  0.4013469308076249  1.0000
  C   C6        1.0  0.9907479672633531  0.966038868766911  0.7543258113419001  1.0000
  C   C7        1.0  0.07574416461357636  0.5800185541564783  0.6377521122707223  1.0000
  C   C8        1.0  0.2891185723248566  0.012278814400823611  0.14733184514736708  1.0000
  O   O1        1.0  0.5826659325832861  0.6608243506444942  0.5231357945324954  1.0000
  O   O2        1.0  0.01748069625503823  0.06604905027473196  0.5570298890209104  1.0000
  O   O3        1.0  0.9065996925386854  0.5606901344808868  0.7837860428487673  1.0000
  O   O4        1.0  0.08542599174778862  0.13407115841514206  0.2014791687084445  1.0000
  O   O5        1.0  0.8157111705063599  0.5830125887098865  0.20259576843957014  1.0000
  O   O6        1.0  0.4026836680781082  0.5881854089457816  0.12348577215707386  1.0000
  O   O7        1.0  0.2651867631353389  0.47504170804001183  0.6791220588615707  1.0000
  O   O8        1.0  0.4804866601394657  0.880337775136934  0.10165820988330787  1.0000
  O   O9        1.0  0.8598564247954257  0.9053866442389694  0.3926259052039277  1.0000
  O   O10       1.0  0.3048597190416418  0.561844752817313  0.8745420702452357  1.0000
  O   O11       1.0  0.4266088861049466  0.21866346995119898  0.522298803741801  1.0000
  O   O12       1.0  0.9360879210032453  0.8866362581574427  0.9256295059056435  1.0000
data_image8
_chemical_formula_structural       Mg2C8O12
_chemical_formula_sum              "Mg2 C8 O12"
_cell_length_a       7.872530813609877
_cell_length_b       7.872530813609877
_cell_length_c       7.368803275525341
_cell_angle_alpha    62.34925540174321
_cell_angle_beta     62.34925540174321
_cell_angle_gamma    54.72736521231912

_space_group_name_H-M_alt    "P 1"
_space_group_IT_number       1

loop_
  _space_group_symop_operation_xyz
  'x, y, z'

loop_
  _atom_site_type_symbol
  _atom_site_label
  _atom_site_symmetry_multiplicity
  _atom_site_fract_x
  _atom_site_fract_y
  _atom_site_fract_z
  _atom_site_occupancy
  Mg  Mg1       1.0  0.6214425761516361  0.49862173125153864  0.7954610785407028  1.0000
  Mg  Mg2       1.0  0.0036524127804370065  0.6158503568608654  0.9204712747500161  1.0000
  C   C1        1.0  0.639682574206986  0.34425325475820917  0.4969452972812423  1.0000
  C   C2        1.0  0.5076268346323659  0.26893219533204266  0.6202598629845999  1.0000
  C   C3        1.0  0.0031208982221855477  0.7668941698291457  0.3999311551717092  1.0000
  C   C4        1.0  0.1928813414701648  0.6158215109997992  0.26759957906706844  1.0000
  C   C5        1.0  0.7548062420203799  0.4781255606158299  0.3826607426206849  1.0000
  C   C6        1.0  0.06117315471459217  0.9380630520425126  0.7292774390932946  1.0000
  C   C7        1.0  0.9934065223498164  0.6288860187131183  0.6299833356948661  1.0000
  C   C8        1.0  0.27718930009363085  0.034666831772913  0.14089909504338483  1.0000
  O   O1        1.0  0.784136680183276  0.5118097691193343  0.5239437866887999  1.0000
  O   O2        1.0  0.21156601600466507  0.9361303455335308  0.5792386565039602  1.0000
  O   O3        1.0  0.8168381415836525  0.6711557884523757  0.775080320201222  1.0000
  O   O4        1.0  0.17572677797752456  0.2107745860610102  0.021497717514558756  1.0000
  O   O5        1.0  0.8050085369547219  0.5321216939771798  0.17920646573418234  1.0000
  O   O6        1.0  0.38148897936923754  0.5369948378274807  0.23052920743940894  1.0000
  O   O7        1.0  0.17765344229795418  0.48680671988256596  0.649235081367848  1.0000
  O   O8        1.0  0.4061797370553531  0.8875800160749894  0.2221569713705489  1.0000
  O   O9        1.0  0.9456407433749452  0.9641750005602063  0.30972206404560243  1.0000
  O   O10       1.0  0.2537009121848475  0.6323873335002396  0.8739706604217189  1.0000
  O   O11       1.0  0.4359360206843039  0.14332595653044683  0.743201389114054  1.0000
  O   O12       1.0  0.8482904712717297  0.014578920966342971  0.8123906810180672  1.0000
data_image9
_chemical_formula_structural       Mg2C8O12
_chemical_formula_sum              "Mg2 C8 O12"
_cell_length_a       7.872530813609877
_cell_length_b       7.872530813609877
_cell_length_c       7.368803275525341
_cell_angle_alpha    62.34925540174321
_cell_angle_beta     62.34925540174321
_cell_angle_gamma    54.72736521231912

_space_group_name_H-M_alt    "P 1"
_space_group_IT_number       1

loop_
  _space_group_symop_operation_xyz
  'x, y, z'

loop_
  _atom_site_type_symbol
  _atom_site_label
  _atom_site_symmetry_multiplicity
  _atom_site_fract_x
  _atom_site_fract_y
  _atom_site_fract_z
  _atom_site_occupancy
  Mg  Mg1       1.0  0.5300106504468285  0.6750186891020488  0.664823850386876  1.0000
  Mg  Mg2       1.0  0.012488697810418815  0.5760983710150949  0.062007863998209574  1.0000
  C   C1        1.0  0.5734401562660265  0.42091992801007333  0.5187985601891845  1.0000
  C   C2        1.0  0.5271095312270175  0.2667382745435851  0.5910739723661257  1.0000
  C   C3        1.0  0.07711528297830562  0.6837420518194125  0.3906105544028335  1.0000
  C   C4        1.0  0.29690304763381636  0.5220788818585045  0.2008112538408949  1.0000
  C   C5        1.0  0.7290035410394873  0.48490718595512045  0.3520227348163917  1.0000
  C   C6        1.0  0.9978135068490749  0.08376902389669483  0.6946450645847176  1.0000
  C   C7        1.0  0.9355736462868073  0.6397785931257871  0.6488254790798289  1.0000
  C   C8        1.0  0.36984815423353273  0.9637396166057077  0.14677512002294857  1.0000
  O   O1        1.0  0.8049233065681961  0.589689026841791  0.3672177049637306  1.0000
  O   O2        1.0  0.15842511441589435  0.10806152612548492  0.613261579654305  1.0000
  O   O3        1.0  0.769574461816076  0.6414407546222434  0.6869085090427518  1.0000
  O   O4        1.0  0.2533717454375727  0.05898195747935305  0.024674371077256563  1.0000
  O   O5        1.0  0.8384375095613311  0.42660135884408074  0.18699693040116686  1.0000
  O   O6        1.0  0.4356294129518669  0.36064766003097304  0.2502458069187731  1.0000
  O   O7        1.0  0.007795705254171653  0.6106222148413941  0.7946879745892145  1.0000
  O   O8        1.0  0.4197120754569252  0.8785441004170967  0.30264021616837544  1.0000
  O   O9        1.0  0.9716351188765038  0.8846658581113269  0.313972919484436  1.0000
  O   O10       1.0  0.27943817118520303  0.6268992744197598  0.02187765439666525  1.0000
  O   O11       1.0  0.48805989389526166  0.12696914434689927  0.6263248663478336  1.0000
  O   O12       1.0  0.8824275578346328  0.013856322311930533  0.808963196259124  1.0000
data_image10
_chemical_formula_structural       Mg2C8O12
_chemical_formula_sum              "Mg2 C8 O12"
_cell_length_a       7.872530813609877
_cell_length_b       7.872530813609877
_cell_length_c       7.368803275525341
_cell_angle_alpha    62.34925540174321
_cell_angle_beta     62.34925540174321
_cell_angle_gamma    54.72736521231912

_space_group_name_H-M_alt    "P 1"
_space_group_IT_number       1

loop_
  _space_group_symop_operation_xyz
  'x, y, z'

loop_
  _atom_site_type_symbol
  _atom_site_label
  _atom_site_symmetry_multiplicity
  _atom_site_fract_x
  _atom_site_fract_y
  _atom_site_fract_z
  _atom_site_occupancy
  Mg  Mg1       1.0  0.5153826999182018  0.7501233106576977  0.5553945211416258  1.0000
  Mg  Mg2       1.0  0.030498040987340443  0.5191862305728528  0.043610976453601145  1.0000
  C   C1        1.0  0.5302205996944357  0.5073223984965078  0.48717121150403364  1.0000
  C   C2        1.0  0.5046441654814698  0.346233567589273  0.575842841232128  1.0000
  C   C3        1.0  0.9934212871927491  0.7717407701024404  0.46556803460904156  1.0000
  C   C4        1.0  0.37864447569815973  0.5314376825086831  0.04313157092156667  1.0000
  C   C5        1.0  0.7285480820872854  0.502659210126836  0.36852199251340406  1.0000
  C   C6        1.0  0.019567627311415592  0.9923887030144716  0.8037144331704308  1.0000
  C   C7        1.0  0.9102616648206036  0.6119547660948347  0.6690520399198168  1.0000
  C   C8        1.0  0.3461747471372278  0.9729484890261475  0.19483513924436258  1.0000
  O   O1        1.0  0.7106317481990698  0.7028478936754708  0.24553924775536892  1.0000
  O   O2        1.0  0.1717710765860696  0.02642068178830237  0.7425331918777542  1.0000
  O   O3        1.0  0.7360044336940591  0.5869523780728646  0.7101753688341722  1.0000
  O   O4        1.0  0.40918811867557925  0.8909850003842936  0.06667113785744117  1.0000
  O   O5        1.0  0.9337018642393381  0.33121314228863524  0.30114109248646875  1.0000
  O   O6        1.0  0.4795642963105208  0.4450929319479504  0.1698377211070697  1.0000
  O   O7        1.0  0.05971398465013618  0.47657037505091815  0.7749978382993141  1.0000
  O   O8        1.0  0.30674184245887853  0.03159411184261662  0.3423084324015657  1.0000
  O   O9        1.0  0.9366214819368205  0.862536950682093  0.3090998228102148  1.0000
  O   O10       1.0  0.2313123799878794  0.6482373467670925  0.9792877643337665  1.0000
  O   O11       1.0  0.5556049186577656  0.14469133726331793  0.6700419869640519  1.0000
  O   O12       1.0  0.8456875676120474  0.02357608662927831  0.8327101448560292  1.0000
data_image11
_chemical_formula_structural       Mg2C8O12
_chemical_formula_sum              "Mg2 C8 O12"
_cell_length_a       7.872530813609877
_cell_length_b       7.872530813609877
_cell_length_c       7.368803275525341
_cell_angle_alpha    62.34925540174321
_cell_angle_beta     62.34925540174321
_cell_angle_gamma    54.72736521231912

_space_group_name_H-M_alt    "P 1"
_space_group_IT_number       1

loop_
  _space_group_symop_operation_xyz
  'x, y, z'

loop_
  _atom_site_type_symbol
  _atom_site_label
  _atom_site_symmetry_multiplicity
  _atom_site_fract_x
  _atom_site_fract_y
  _atom_site_fract_z
  _atom_site_occupancy
  Mg  Mg1       1.0  0.4234247071217901  0.7891854869451493  0.5768550182745386  1.0000
  Mg  Mg2       1.0  0.0639055514232368  0.5546113824223279  0.9586952943893523  1.0000
  C   C1        1.0  0.5321073089911648  0.5397692741733321  0.4526330270611608  1.0000
  C   C2        1.0  0.4164132702631917  0.43103103448806757  0.5548396841966132  1.0000
  C   C3        1.0  0.855215382787938  0.8540132644173427  0.4889830972905784  1.0000
  C   C4        1.0  0.5025802002096885  0.38092654329210834  0.05109401140336589  1.0000
  C   C5        1.0  0.7388666277606706  0.512266219891141  0.2910245510762675  1.0000
  C   C6        1.0  0.040078943777168696  0.021067131317275  0.8611323698071585  1.0000
  C   C7        1.0  0.8900886049720782  0.6056252433898341  0.6633865978564809  1.0000
  C   C8        1.0  0.32810135287860065  0.9681308134418968  0.21948745951622572  1.0000
  O   O1        1.0  0.7420856032348238  0.6927552687011913  0.16767623981831764  1.0000
  O   O2        1.0  0.22845822355244372  0.990607990004943  0.7704268099492003  1.0000
  O   O3        1.0  0.7196206670647102  0.5832246222510318  0.691877259952107  1.0000
  O   O4        1.0  0.3697913013894369  0.8794988092468601  0.10917818044357697  1.0000
  O   O5        1.0  0.9327752861536894  0.33823917300794776  0.22763027508083775  1.0000
  O   O6        1.0  0.5698057355344217  0.3764944210720177  0.15515874784074551  1.0000
  O   O7        1.0  0.0199536394178594  0.47974127509412423  0.7777093156024627  1.0000
  O   O8        1.0  0.28365744978087093  0.032409529367369405  0.3619283939937601  1.0000
  O   O9        1.0  0.9820749085354916  0.9255797883379  0.4152329887525067  1.0000
  O   O10       1.0  0.3668178107116122  0.3951588586012731  0.9689940089803482  1.0000
  O   O11       1.0  0.4602242021358262  0.2555097581572163  0.6330250109242899  1.0000
  O   O12       1.0  0.8701104640370163  0.05337008728645712  0.9773000605572045  1.0000
data_image12
_chemical_formula_structural       Mg2C8O12
_chemical_formula_sum              "Mg2 C8 O12"
_cell_length_a       7.872530813609877
_cell_length_b       7.872530813609877
_cell_length_c       7.368803275525341
_cell_angle_alpha    62.34925540174321
_cell_angle_beta     62.34925540174321
_cell_angle_gamma    54.72736521231912

_space_group_name_H-M_alt    "P 1"
_space_group_IT_number       1

loop_
  _space_group_symop_operation_xyz
  'x, y, z'

loop_
  _atom_site_type_symbol
  _atom_site_label
  _atom_site_symmetry_multiplicity
  _atom_site_fract_x
  _atom_site_fract_y
  _atom_site_fract_z
  _atom_site_occupancy
  Mg  Mg1       1.0  0.5145336940090414  0.8064530932978076  0.5162390450475313  1.0000
  Mg  Mg2       1.0  0.006752352777936695  0.4489565792659519  0.03648476000089166  1.0000
  C   C1        1.0  0.5587041834633948  0.5061668908860744  0.4781381645725227  1.0000
  C   C2        1.0  0.4759955139985565  0.3702982880866295  0.5662802440607253  1.0000
  C   C3        1.0  0.9272271831866085  0.8764128169160668  0.4749174711944805  1.0000
  C   C4        1.0  0.3442150490084228  0.4186099416441901  0.15431013170206562  1.0000
  C   C5        1.0  0.7291652524482608  0.5018938258318933  0.3132050703563738  1.0000
  C   C6        1.0  0.06550341435211537  0.9770966921766846  0.8017675188451281  1.0000
  C   C7        1.0  0.9077452943969991  0.6585271429961437  0.6280162794870752  1.0000
  C   C8        1.0  0.36515305270161025  0.9811381717192336  0.12927835957066103  1.0000
  O   O1        1.0  0.7887036195873512  0.6536763724208877  0.1883960756223651  1.0000
  O   O2        1.0  0.21679835259729763  0.885124798831658  0.6695791623774052  1.0000
  O   O3        1.0  0.7553573357572021  0.6432117712509319  0.654827286511948  1.0000
  O   O4        1.0  0.24043349144263518  0.9956878722537498  0.06841067608214324  1.0000
  O   O5        1.0  0.8897201395347886  0.3040920020557028  0.3213690324355198  1.0000
  O   O6        1.0  0.42864522002345434  0.31081658398940093  0.2867174432489596  1.0000
  O   O7        1.0  0.061566260278624156  0.5309014851922412  0.6998785328008266  1.0000
  O   O8        1.0  0.42398921987556903  0.04336292357551885  0.2014884814144211  1.0000
  O   O9        1.0  0.9398109853690194  0.9828406325127905  0.5400910200737365  1.0000
  O   O10       1.0  0.2793305473318123  0.5287325787747253  0.006957508293257761  1.0000
  O   O11       1.0  0.48507587709683975  0.20249569040830406  0.6959348001506374  1.0000
  O   O12       1.0  0.9293919769431583  0.0731839783239459  0.9269398339489431  1.0000
data_image13
_chemical_formula_structural       Mg2C8O12
_chemical_formula_sum              "Mg2 C8 O12"
_cell_length_a       7.872530813609877
_cell_length_b       7.872530813609877
_cell_length_c       7.368803275525341
_cell_angle_alpha    62.34925540174321
_cell_angle_beta     62.34925540174321
_cell_angle_gamma    54.72736521231912

_space_group_name_H-M_alt    "P 1"
_space_group_IT_number       1

loop_
  _space_group_symop_operation_xyz
  'x, y, z'

loop_
  _atom_site_type_symbol
  _atom_site_label
  _atom_site_symmetry_multiplicity
  _atom_site_fract_x
  _atom_site_fract_y
  _atom_site_fract_z
  _atom_site_occupancy
  Mg  Mg1       1.0  0.5614752384818693  0.8370331678465719  0.3638426782469666  1.0000
  Mg  Mg2       1.0  0.1108755380193887  0.4231592498415843  0.9426476016854707  1.0000
  C   C1        1.0  0.7170574160671443  0.37592335811980043  0.5050637585743741  1.0000
  C   C2        1.0  0.5690025536205333  0.34311343780426184  0.6227275554350052  1.0000
  C   C3        1.0  0.7337663329476329  0.8951439433919529  0.7242304703571267  1.0000
  C   C4        1.0  0.35274579439470255  0.39564626917126355  0.1970919399333704  1.0000
  C   C5        1.0  0.8488929713562976  0.3992592002620692  0.30907360122026456  1.0000
  C   C6        1.0  0.10556469631422383  0.06462722330507242  0.6610583727168754  1.0000
  C   C7        1.0  0.7702840553806366  0.7234850879448037  0.6801926262121624  1.0000
  C   C8        1.0  0.4026813537974134  0.9162816055061154  0.14879329051744739  1.0000
  O   O1        1.0  0.8869054463338019  0.5614355326232431  0.2640824432598384  1.0000
  O   O2        1.0  0.19649892947587255  0.9180598431906608  0.5956083322620325  1.0000
  O   O3        1.0  0.6264221564226053  0.6581863365584221  0.7740120121017212  1.0000
  O   O4        1.0  0.3303289328227762  0.9005326906337765  0.031673852652766676  1.0000
  O   O5        1.0  0.909130605881248  0.3093995925357514  0.166451895843635  1.0000
  O   O6        1.0  0.44894136861619666  0.3039722891359746  0.3213970586494015  1.0000
  O   O7        1.0  0.9689363407904766  0.6098179804999847  0.5650465757301087  1.0000
  O   O8        1.0  0.34158403109201146  0.07401671692497214  0.20008410668252807  1.0000
  O   O9        1.0  0.7153756370348847  0.9282552744824155  0.8676367186019347  1.0000
  O   O10       1.0  0.2582891767823686  0.5304443281583314  0.05819057101469616  1.0000
  O   O11       1.0  0.41139160763219895  0.32212430050196267  0.7848087376038247  1.0000
  O   O12       1.0  0.0216452726111227  0.16481005762699102  0.7756758612175971  1.0000
data_image14
_chemical_formula_structural       Mg2C8O12
_chemical_formula_sum              "Mg2 C8 O12"
_cell_length_a       7.872530813609877
_cell_length_b       7.872530813609877
_cell_length_c       7.368803275525341
_cell_angle_alpha    62.34925540174321
_cell_angle_beta     62.34925540174321
_cell_angle_gamma    54.72736521231912

_space_group_name_H-M_alt    "P 1"
_space_group_IT_number       1

loop_
  _space_group_symop_operation_xyz
  'x, y, z'

loop_
  _atom_site_type_symbol
  _atom_site_label
  _atom_site_symmetry_multiplicity
  _atom_site_fract_x
  _atom_site_fract_y
  _atom_site_fract_z
  _atom_site_occupancy
  Mg  Mg1       1.0  0.6963733417447138  0.5865548909996879  0.5082370459747709  1.0000
  Mg  Mg2       1.0  0.040032714017253605  0.4623335879736782  0.9352991005602698  1.0000
  C   C1        1.0  0.5946705597295097  0.4161049150826053  0.38533376916056333  1.0000
  C   C2        1.0  0.4303173928118759  0.44206245967781316  0.56828730410474  1.0000
  C   C3        1.0  0.6532339980063476  0.8453971017261805  0.9286746540663966  1.0000
  C   C4        1.0  0.4630946488400194  0.3759171411863655  0.10805914759587001  1.0000
  C   C5        1.0  0.7892360139917969  0.3856830557071298  0.26860915051388995  1.0000
  C   C6        1.0  0.20867907124755503  0.9513650819005393  0.6996421292785855  1.0000
  C   C7        1.0  0.7510799547038914  0.8159670907359107  0.690918117165361  1.0000
  C   C8        1.0  0.26212918960460246  0.043257639110251746  0.19756744636238222  1.0000
  O   O1        1.0  0.8826687937344418  0.5310030928204951  0.23365314841153437  1.0000
  O   O2        1.0  0.33344717363219156  0.7816407989516296  0.6404990653921587  1.0000
  O   O3        1.0  0.6904918518361296  0.6985200268956258  0.6796498836631897  1.0000
  O   O4        1.0  0.2844844011954141  0.9285902725417577  0.13603087419676796  1.0000
  O   O5        1.0  0.8905022476268422  0.28188012791258443  0.1279121829342388  1.0000
  O   O6        1.0  0.6234878051442706  0.23280744190371427  0.053928464984653375  1.0000
  O   O7        1.0  0.8386578587624945  0.9171895898304353  0.5617116768164174  1.0000
  O   O8        1.0  0.28017414983212835  0.18506239168266814  0.20336442062592486  1.0000
  O   O9        1.0  0.7098066438284185  0.936295265466788  0.9556465214130418  1.0000
  O   O10       1.0  0.3200871068406141  0.5174191044974367  0.1738075887493157  1.0000
  O   O11       1.0  0.3542401602161197  0.33465342427049005  0.7257313172154723  1.0000
  O   O12       1.0  0.07217914630781408  0.1338062426871428  0.7062783060453216  1.0000
data_image15
_chemical_formula_structural       Mg2C8O12
_chemical_formula_sum              "Mg2 C8 O12"
_cell_length_a       7.872530813609877
_cell_length_b       7.872530813609877
_cell_length_c       7.368803275525341
_cell_angle_alpha    62.34925540174321
_cell_angle_beta     62.34925540174321
_cell_angle_gamma    54.72736521231912

_space_group_name_H-M_alt    "P 1"
_space_group_IT_number       1

loop_
  _space_group_symop_operation_xyz
  'x, y, z'

loop_
  _atom_site_type_symbol
  _atom_site_label
  _atom_site_symmetry_multiplicity
  _atom_site_fract_x
  _atom_site_fract_y
  _atom_site_fract_z
  _atom_site_occupancy
  Mg  Mg1       1.0  0.6903324027316761  0.5231468985888266  0.6011229389450564  1.0000
  Mg  Mg2       1.0  0.9857458026951812  0.460935009910329  0.9316282609684109  1.0000
  C   C1        1.0  0.540797205713823  0.46778582230425053  0.4817487715068235  1.0000
  C   C2        1.0  0.40937496711003346  0.415412907075316  0.624781832500248  1.0000
  C   C3        1.0  0.8854828846724133  0.8219127707543148  0.8190580412765567  1.0000
  C   C4        1.0  0.4725332874415127  0.3779699978789385  0.04910357256156792  1.0000
  C   C5        1.0  0.7034612453172828  0.4828024835101227  0.2650747986931348  1.0000
  C   C6        1.0  0.21630803751919858  0.942400844050388  0.6924924632282259  1.0000
  C   C7        1.0  0.8040706553116074  0.8408483387628998  0.5947747869366754  1.0000
  C   C8        1.0  0.292856578509591  0.01440065857925435  0.21380548263013588  1.0000
  O   O1        1.0  0.8253541079798294  0.5309407136870798  0.2940562601743716  1.0000
  O   O2        1.0  0.37726148491950195  0.7803765542721213  0.670348783669469  1.0000
  O   O3        1.0  0.8837367561686822  0.6319993791382651  0.6296238235778288  1.0000
  O   O4        1.0  0.34054006247253577  0.825313309946476  0.2733015773589673  1.0000
  O   O5        1.0  0.7071758971709408  0.5173576451872878  0.07649478475883903  1.0000
  O   O6        1.0  0.6266885034692277  0.338856737174061  0.8911613555765139  1.0000
  O   O7        1.0  0.8357035018820804  0.9796017713676703  0.4383625594571366  1.0000
  O   O8        1.0  0.2083781894141869  0.18502818579921732  0.21134966637701913  1.0000
  O   O9        1.0  0.7232444203380467  0.9085605291401205  0.9316051131631325  1.0000
  O   O10       1.0  0.31852149730865054  0.4320652801051011  0.18592427557287708  1.0000
  O   O11       1.0  0.322472745618454  0.28252225990967045  0.7798813336738245  1.0000
  O   O12       1.0  0.07331839586241484  0.09648971558330778  0.7634996231665071  1.0000
data_image16
_chemical_formula_structural       Mg2C8O12
_chemical_formula_sum              "Mg2 C8 O12"
_cell_length_a       7.872530813609877
_cell_length_b       7.872530813609877
_cell_length_c       7.368803275525341
_cell_angle_alpha    62.34925540174321
_cell_angle_beta     62.34925540174321
_cell_angle_gamma    54.72736521231912

_space_group_name_H-M_alt    "P 1"
_space_group_IT_number       1

loop_
  _space_group_symop_operation_xyz
  'x, y, z'

loop_
  _atom_site_type_symbol
  _atom_site_label
  _atom_site_symmetry_multiplicity
  _atom_site_fract_x
  _atom_site_fract_y
  _atom_site_fract_z
  _atom_site_occupancy
  Mg  Mg1       1.0  0.6751860256439122  0.5303730451460301  0.6565141307688809  1.0000
  Mg  Mg2       1.0  0.02987156299356891  0.44056995693847517  0.9268436337147042  1.0000
  C   C1        1.0  0.6148303721238194  0.38225626662663753  0.46739689259977735  1.0000
  C   C2        1.0  0.4415004045168336  0.3869879043142853  0.5907302349948361  1.0000
  C   C3        1.0  0.871558079249027  0.8156620801702383  0.7677785613009214  1.0000
  C   C4        1.0  0.4408054692893881  0.3747464825975598  0.15258407184227435  1.0000
  C   C5        1.0  0.7411464891734363  0.5018693433711886  0.2916256612221804  1.0000
  C   C6        1.0  0.22587685281210645  0.9466042529651038  0.6568373629771261  1.0000
  C   C7        1.0  0.8581364131181207  0.7809795869031799  0.5588802728676037  1.0000
  C   C8        1.0  0.21951806172365554  0.973756690306094  0.23845216008063352  1.0000
  O   O1        1.0  0.8491802661500828  0.5340696539477253  0.3460850244738288  1.0000
  O   O2        1.0  0.385323154796559  0.7931963672866328  0.6830624714697768  1.0000
  O   O3        1.0  0.9018844149081867  0.565382408906919  0.6719940262357508  1.0000
  O   O4        1.0  0.3568402331178987  0.8263405481537138  0.31472720627177786  1.0000
  O   O5        1.0  0.7409407985016255  0.6092735186254026  0.09431308991947633  1.0000
  O   O6        1.0  0.6227572312328977  0.28743653430735955  0.0475008309748524  1.0000
  O   O7        1.0  0.7804375534524776  0.9371477014267197  0.42918698340202577  1.0000
  O   O8        1.0  0.09632985400201402  0.14634659274027273  0.16821889646466204  1.0000
  O   O9        1.0  0.7546762043418094  0.005334469861195679  0.7594901724787595  1.0000
  O   O10       1.0  0.25713965020839047  0.5052665988660355  0.20114100005311208  1.0000
  O   O11       1.0  0.3101884969098475  0.35679513921135514  0.7688274427613946  1.0000
  O   O12       1.0  0.07707622810065518  0.11290842669261703  0.5969787673999795  1.0000
data_image17
_chemical_formula_structural       Mg2C8O12
_chemical_formula_sum              "Mg2 C8 O12"
_cell_length_a       7.872530813609877
_cell_length_b       7.872530813609877
_cell_length_c       7.368803275525341
_cell_angle_alpha    62.34925540174321
_cell_angle_beta     62.34925540174321
_cell_angle_gamma    54.72736521231912

_space_group_name_H-M_alt    "P 1"
_space_group_IT_number       1

loop_
  _space_group_symop_operation_xyz
  'x, y, z'

loop_
  _atom_site_type_symbol
  _atom_site_label
  _atom_site_symmetry_multiplicity
  _atom_site_fract_x
  _atom_site_fract_y
  _atom_site_fract_z
  _atom_site_occupancy
  Mg  Mg1       1.0  0.6940242480098356  0.5001559783420494  0.6671166629070663  1.0000
  Mg  Mg2       1.0  0.007498901656596401  0.37876857078012144  0.8984396023471852  1.0000
  C   C1        1.0  0.5505698899749712  0.41621070068630556  0.4992622862212871  1.0000
  C   C2        1.0  0.46397593350481414  0.33788063378408495  0.6959326122428412  1.0000
  C   C3        1.0  0.7899094266308087  0.9941638439818664  0.7439973485493522  1.0000
  C   C4        1.0  0.327529305658276  0.548255529207896  0.14009847097693973  1.0000
  C   C5        1.0  0.7509378907335069  0.42223376240217947  0.33705065483935415  1.0000
  C   C6        1.0  0.35818689646045354  0.905193276215114  0.5826713047865385  1.0000
  C   C7        1.0  0.7702354712614692  0.8494015811055345  0.6511762294260935  1.0000
  C   C8        1.0  0.30148486589640267  0.963096342749064  0.0844985498863835  1.0000
  O   O1        1.0  0.8403736697632633  0.5123647217740108  0.3568447793428878  1.0000
  O   O2        1.0  0.3505972957461232  0.7480556842564071  0.7383515606929405  1.0000
  O   O3        1.0  0.756771336202647  0.6540978392862503  0.7873541338535059  1.0000
  O   O4        1.0  0.4170946046583576  0.8265369115438775  0.20316630754848908  1.0000
  O   O5        1.0  0.7741099503255698  0.4073260560678273  0.16076765410167188  1.0000
  O   O6        1.0  0.46529054735212977  0.4421730539313012  0.019980597689341992  1.0000
  O   O7        1.0  0.7329910203363326  0.9578909638554549  0.4816338094862144  1.0000
  O   O8        1.0  0.19400450494315  0.07605441346134567  0.9390191169817611  1.0000
  O   O9        1.0  0.9104441435584083  0.8914515761916381  0.8624912450500075  1.0000
  O   O10       1.0  0.2040249153497598  0.6487208972551286  0.2512971635066015  1.0000
  O   O11       1.0  0.29789813951455774  0.3718698695273904  0.8044151702870156  1.0000
  O   O12       1.0  0.27071845070387424  0.07620790651267334  0.4968302853699146  1.0000
data_image18
_chemical_formula_structural       Mg2C8O12
_chemical_formula_sum              "Mg2 C8 O12"
_cell_length_a       7.872530813609877
_cell_length_b       7.872530813609877
_cell_length_c       7.368803275525341
_cell_angle_alpha    62.34925540174321
_cell_angle_beta     62.34925540174321
_cell_angle_gamma    54.72736521231912

_space_group_name_H-M_alt    "P 1"
_space_group_IT_number       1

loop_
  _space_group_symop_operation_xyz
  'x, y, z'

loop_
  _atom_site_type_symbol
  _atom_site_label
  _atom_site_symmetry_multiplicity
  _atom_site_fract_x
  _atom_site_fract_y
  _atom_site_fract_z
  _atom_site_occupancy
  Mg  Mg1       1.0  0.5396644350428035  0.5723410332594969  0.7010466745935522  1.0000
  Mg  Mg2       1.0  0.9840124884136792  0.3137006929208365  0.9976673749077755  1.0000
  C   C1        1.0  0.5441541709631943  0.34611330583659267  0.5167740106036139  1.0000
  C   C2        1.0  0.34774830290807385  0.49223071255086054  0.5714574950113607  1.0000
  C   C3        1.0  0.8717452012942759  0.7282110463093875  0.9611060622099223  1.0000
  C   C4        1.0  0.33418498264015906  0.549352229803229  0.05288598092817018  1.0000
  C   C5        1.0  0.7504150101418386  0.32640940552520126  0.4181553695974641  1.0000
  C   C6        1.0  0.3984465371024184  0.046739319311208005  0.45601357043028157  1.0000
  C   C7        1.0  0.7743717826625707  0.7413933808557781  0.7686120911544491  1.0000
  C   C8        1.0  0.3201724269796326  0.054808733922751464  0.032229848544615525  1.0000
  O   O1        1.0  0.7633437665824395  0.43955565359032545  0.46841774301099043  1.0000
  O   O2        1.0  0.3869150065034157  0.8670603113190978  0.5738271583886536  1.0000
  O   O3        1.0  0.7650005321458813  0.5724778560387828  0.7721989848119509  1.0000
  O   O4        1.0  0.4674889227106546  0.028388527563108428  0.060888722287204766  1.0000
  O   O5        1.0  0.9086499891804475  0.19645637778105454  0.30073551537743265  1.0000
  O   O6        1.0  0.5127059668934565  0.396943415908822  0.012296707485365089  1.0000
  O   O7        1.0  0.7899569223124104  0.8975369414067469  0.6022524713955484  1.0000
  O   O8        1.0  0.2388211928696962  0.03410212597910656  0.9465702870856318  1.0000
  O   O9        1.0  0.8714910217744295  0.8994070930547321  0.8916242874984425  1.0000
  O   O10       1.0  0.152906055182668  0.6346573294192799  0.14413278591368872  1.0000
  O   O11       1.0  0.17134268220075216  0.5742268999125162  0.6945788306928273  1.0000
  O   O12       1.0  0.4349878305484103  0.17556162859309413  0.3993322530599781  1.0000
data_image19
_chemical_formula_structural       Mg2C8O12
_chemical_formula_sum              "Mg2 C8 O12"
_cell_length_a       7.872530813609877
_cell_length_b       7.872530813609877
_cell_length_c       7.368803275525341
_cell_angle_alpha    62.34925540174321
_cell_angle_beta     62.34925540174321
_cell_angle_gamma    54.72736521231912

_space_group_name_H-M_alt    "P 1"
_space_group_IT_number       1

loop_
  _space_group_symop_operation_xyz
  'x, y, z'

loop_
  _atom_site_type_symbol
  _atom_site_label
  _atom_site_symmetry_multiplicity
  _atom_site_fract_x
  _atom_site_fract_y
  _atom_site_fract_z
  _atom_site_occupancy
  Mg  Mg1       1.0  0.6064826479426145  0.6193035973884911  0.646320230524415  1.0000
  Mg  Mg2       1.0  0.9580317952094811  0.3005729381901278  0.018701434595660326  1.0000
  C   C1        1.0  0.6216408148316418  0.3161763766640699  0.5099148146429332  1.0000
  C   C2        1.0  0.4021338595777014  0.477123055184572  0.49987174473784474  1.0000
  C   C3        1.0  0.7627842158946262  0.7420992479762043  0.0019796252861323804  1.0000
  C   C4        1.0  0.23499030095744514  0.572355981644475  0.15252594018082063  1.0000
  C   C5        1.0  0.8192184562184718  0.31273262401671875  0.42454953548909463  1.0000
  C   C6        1.0  0.36830531155586876  0.02526007709364153  0.4860342722339125  1.0000
  C   C7        1.0  0.756550667240397  0.6936505366612957  0.8371008983495044  1.0000
  C   C8        1.0  0.3603580914860167  0.10502433838282363  0.917115296208194  1.0000
  O   O1        1.0  0.8460704993382422  0.4951351875320818  0.4044827163329781  1.0000
  O   O2        1.0  0.3607739098405849  0.8626444277857105  0.5261315216832162  1.0000
  O   O3        1.0  0.7429360229177266  0.5333707978615617  0.8525680342929154  1.0000
  O   O4        1.0  0.48032960562710664  0.11426813404327481  0.9532464286822541  1.0000
  O   O5        1.0  0.9750855587333248  0.18062795951458896  0.29874461128181606  1.0000
  O   O6        1.0  0.3469593258544668  0.5279241928747058  0.9896150126596578  1.0000
  O   O7        1.0  0.7458856798126632  0.8231872594986077  0.6629465657825735  1.0000
  O   O8        1.0  0.2215042581358157  0.06205243482513878  0.923306085385397  1.0000
  O   O9        1.0  0.8733646464831418  0.8154952640432164  0.9569439772742777  1.0000
  O   O10       1.0  0.11956701151202932  0.636108069249724  0.3060026503777026  1.0000
  O   O11       1.0  0.22400443388451377  0.5115793183017238  0.635544935440249  1.0000
  O   O12       1.0  0.4776868758117281  0.1321235148148332  0.3683379097995132  1.0000
data_image20
_chemical_formula_structural       Mg2C8O12
_chemical_formula_sum              "Mg2 C8 O12"
_cell_length_a       7.872530813609877
_cell_length_b       7.872530813609877
_cell_length_c       7.368803275525341
_cell_angle_alpha    62.34925540174321
_cell_angle_beta     62.34925540174321
_cell_angle_gamma    54.72736521231912

_space_group_name_H-M_alt    "P 1"
_space_group_IT_number       1

loop_
  _space_group_symop_operation_xyz
  'x, y, z'

loop_
  _atom_site_type_symbol
  _atom_site_label
  _atom_site_symmetry_multiplicity
  _atom_site_fract_x
  _atom_site_fract_y
  _atom_site_fract_z
  _atom_site_occupancy
  Mg  Mg1       1.0  0.5170744465205274  0.5911014532630416  0.7828364204273155  1.0000
  Mg  Mg2       1.0  0.9960174127246018  0.18114644357876344  0.07399274971381833  1.0000
  C   C1        1.0  0.6523269253719629  0.3072344071544841  0.47656658412455116  1.0000
  C   C2        1.0  0.44984256747446477  0.3693179409274545  0.5954819210426648  1.0000
  C   C3        1.0  0.9177589756592524  0.715341040636575  0.7992636843629916  1.0000
  C   C4        1.0  0.2413645174860344  0.6981553569008091  0.14094279759138234  1.0000
  C   C5        1.0  0.791451264000936  0.40899120061025535  0.3955178917983658  1.0000
  C   C6        1.0  0.4022405925924979  0.002047034119732505  0.39897655023982503  1.0000
  C   C7        1.0  0.7779896373753712  0.6646343613855276  0.7908711115556206  1.0000
  C   C8        1.0  0.40319365749019254  0.04101865959789633  0.8847287649573541  1.0000
  O   O1        1.0  0.7710006741258337  0.4845460637174882  0.5395178032601649  1.0000
  O   O2        1.0  0.3108524561328938  0.891751215495671  0.5197203255572499  1.0000
  O   O3        1.0  0.7473881450035521  0.483656144525043  0.9294726212526393  1.0000
  O   O4        1.0  0.5001172206035477  0.025676728782511718  0.9876608130203502  1.0000
  O   O5        1.0  0.9485549111129217  0.38245520338310784  0.2272790680617589  1.0000
  O   O6        1.0  0.33994431134158587  0.547695512001839  0.05801177426572108  1.0000
  O   O7        1.0  0.689695116213599  0.8030248883662311  0.6382062744223563  1.0000
  O   O8        1.0  0.28278652167720175  0.092756774678735  0.7841795379958642  1.0000
  O   O9        1.0  0.9158508120158406  0.732683425639794  0.9564452810886692  1.0000
  O   O10       1.0  0.11066934114585315  0.8707517722412771  0.19021836107918447  1.0000
  O   O11       1.0  0.2570362891563145  0.4519968796421135  0.6677634650871815  1.0000
  O   O12       1.0  0.38432521116815077  0.18300184552020884  0.34830018061599005  1.0000
data_image21
_chemical_formula_structural       Mg2C8O12
_chemical_formula_sum              "Mg2 C8 O12"
_cell_length_a       7.872530813609877
_cell_length_b       7.872530813609877
_cell_length_c       7.368803275525341
_cell_angle_alpha    62.34925540174321
_cell_angle_beta     62.34925540174321
_cell_angle_gamma    54.72736521231912

_space_group_name_H-M_alt    "P 1"
_space_group_IT_number       1

loop_
  _space_group_symop_operation_xyz
  'x, y, z'

loop_
  _atom_site_type_symbol
  _atom_site_label
  _atom_site_symmetry_multiplicity
  _atom_site_fract_x
  _atom_site_fract_y
  _atom_site_fract_z
  _atom_site_occupancy
  Mg  Mg1       1.0  0.5352729103376987  0.5159338325248337  0.7335699891882249  1.0000
  Mg  Mg2       1.0  0.9067657318821937  0.19909419792975272  0.06711253112237837  1.0000
  C   C1        1.0  0.7074178027407966  0.3029967947241023  0.32965652351033586  1.0000
  C   C2        1.0  0.5049611465724939  0.41278613461861585  0.39789966049525033  1.0000
  C   C3        1.0  0.004688309615526753  0.7109498900186335  0.7798446553268682  1.0000
  C   C4        1.0  0.1426851477151089  0.8026305680351178  0.1584906124067091  1.0000
  C   C5        1.0  0.8694119336703612  0.2915147749295109  0.35162201475039745  1.0000
  C   C6        1.0  0.36947893077372207  0.9607596330092129  0.5183211139038519  1.0000
  C   C7        1.0  0.7926316670997794  0.7033891490437842  0.7595937925837921  1.0000
  C   C8        1.0  0.29734464816452316  0.13448969917644008  0.9751339616644698  1.0000
  O   O1        1.0  0.831956904452251  0.2948314987846246  0.5496629546665651  1.0000
  O   O2        1.0  0.33198177656991  0.8168911542856307  0.6038795647378885  1.0000
  O   O3        1.0  0.8352073759404887  0.4953901835441422  0.8194991027851797  1.0000
  O   O4        1.0  0.43557152941842636  0.06975936212449235  0.06399601945499267  1.0000
  O   O5        1.0  0.06541944841723368  0.25203595274926094  0.24036935785652092  1.0000
  O   O6        1.0  0.2901062728671581  0.6749401308936497  0.06615859959139161  1.0000
  O   O7        1.0  0.6272859989113706  0.8697359435971169  0.74277674504704  1.0000
  O   O8        1.0  0.19979946437594992  0.1420101181450233  0.8713631794860058  1.0000
  O   O9        1.0  0.946580813273125  0.8235233426727451  0.8888365551695494  1.0000
  O   O10       1.0  0.994774380399245  0.895619235957273  0.2861247565120713  1.0000
  O   O11       1.0  0.33111005396152754  0.5298954634143177  0.5349592529491494  1.0000
  O   O12       1.0  0.4395686763007023  0.087323153109916  0.42155412666828884  1.0000
data_image22
_chemical_formula_structural       Mg2C8O12
_chemical_formula_sum              "Mg2 C8 O12"
_cell_length_a       7.872530813609877
_cell_length_b       7.872530813609877
_cell_length_c       7.368803275525341
_cell_angle_alpha    62.34925540174321
_cell_angle_beta     62.34925540174321
_cell_angle_gamma    54.72736521231912

_space_group_name_H-M_alt    "P 1"
_space_group_IT_number       1

loop_
  _space_group_symop_operation_xyz
  'x, y, z'

loop_
  _atom_site_type_symbol
  _atom_site_label
  _atom_site_symmetry_multiplicity
  _atom_site_fract_x
  _atom_site_fract_y
  _atom_site_fract_z
  _atom_site_occupancy
  Mg  Mg1       1.0  0.5318247639484748  0.5580524348748648  0.7501739396512808  1.0000
  Mg  Mg2       1.0  0.025520473375277585  0.19463771262930094  0.03181371063311659  1.0000
  C   C1        1.0  0.6288604667413525  0.440429036867601  0.28510041043315887  1.0000
  C   C2        1.0  0.44970635026770395  0.5219275136322576  0.39585245343771946  1.0000
  C   C3        1.0  0.9233813399384192  0.705552997052726  0.06936691952075247  1.0000
  C   C4        1.0  0.1732190182527338  0.700592446915613  0.11366847737532226  1.0000
  C   C5        1.0  0.8125653043840821  0.3175641331968939  0.39696283061224424  1.0000
  C   C6        1.0  0.320328385970281  0.9988709145072091  0.5128458559830389  1.0000
  C   C7        1.0  0.7453099005404645  0.6010399511625626  0.8501561536272294  1.0000
  C   C8        1.0  0.3723290426695337  0.21972266788377334  0.9225744261214526  1.0000
  O   O1        1.0  0.7460634356601062  0.3090360348183996  0.5925809387579355  1.0000
  O   O2        1.0  0.29490082986874344  0.8354571979308456  0.6209872120653324  1.0000
  O   O3        1.0  0.83858315756679  0.38208428611908074  0.8312399611624405  1.0000
  O   O4        1.0  0.48125757689330695  0.23528801037521646  0.9702709868266735  1.0000
  O   O5        1.0  0.004856172408892689  0.19819962917961365  0.3014949630472872  1.0000
  O   O6        1.0  0.3345649926396808  0.536201336595111  0.07918460536261974  1.0000
  O   O7        1.0  0.6827922072705696  0.7527056548388762  0.6895592544095451  1.0000
  O   O8        1.0  0.3365419040776767  0.11993699332635654  0.8807684804270202  1.0000
  O   O9        1.0  0.881138039298189  0.8174464515151894  0.8984719442479334  1.0000
  O   O10       1.0  0.08901278825626817  0.8639791613759411  0.1701039591503371  1.0000
  O   O11       1.0  0.24937215919172231  0.6057329984728999  0.46560344039200036  1.0000
  O   O12       1.0  0.41247855304307035  0.09949159915517261  0.4089945923442173  1.0000
data_image23
_chemical_formula_structural       Mg2C8O12
_chemical_formula_sum              "Mg2 C8 O12"
_cell_length_a       7.872530813609877
_cell_length_b       7.872530813609877
_cell_length_c       7.368803275525341
_cell_angle_alpha    62.34925540174321
_cell_angle_beta     62.34925540174321
_cell_angle_gamma    54.72736521231912

_space_group_name_H-M_alt    "P 1"
_space_group_IT_number       1

loop_
  _space_group_symop_operation_xyz
  'x, y, z'

loop_
  _atom_site_type_symbol
  _atom_site_label
  _atom_site_symmetry_multiplicity
  _atom_site_fract_x
  _atom_site_fract_y
  _atom_site_fract_z
  _atom_site_occupancy
  Mg  Mg1       1.0  0.4866918719408565  0.502968567693544  0.7150263560920388  1.0000
  Mg  Mg2       1.0  0.9459120797009202  0.26718773377892047  0.10761699151256998  1.0000
  C   C1        1.0  0.6076715536621181  0.3932990405197855  0.3544053299944519  1.0000
  C   C2        1.0  0.4104619765176391  0.47117405220980924  0.47144707697819416  1.0000
  C   C3        1.0  0.9033060192390598  0.8856697407513014  0.7847687248962772  1.0000
  C   C4        1.0  0.22254473003878156  0.7536846252971748  0.04785824828568953  1.0000
  C   C5        1.0  0.8037269421826894  0.3089966659984414  0.4361610942950031  1.0000
  C   C6        1.0  0.31343755880071567  0.004189814153831017  0.5491072351120592  1.0000
  C   C7        1.0  0.8906302589796373  0.5494534125576395  0.6719273602750899  1.0000
  C   C8        1.0  0.45628646163118336  0.13274868755257244  0.9384250522799013  1.0000
  O   O1        1.0  0.795716447213225  0.36184463189164495  0.5885978792507038  1.0000
  O   O2        1.0  0.3470637939881538  0.8514897529250077  0.5210734222802799  1.0000
  O   O3        1.0  0.9662575336232201  0.43953230460812476  0.8125994397261539  1.0000
  O   O4        1.0  0.5173654065456476  0.21281648246709625  0.9965317554363623  1.0000
  O   O5        1.0  0.9667179824538299  0.1405573051892196  0.38243227413886516  1.0000
  O   O6        1.0  0.3380575704581957  0.5887529287168484  0.9966044691157223  1.0000
  O   O7        1.0  0.7318725477525712  0.693715357128695  0.6231975996919433  1.0000
  O   O8        1.0  0.34621455453445554  0.06902636504456794  0.9413734259339339  1.0000
  O   O9        1.0  0.8064843395789781  0.787961812180352  0.9137009373765478  1.0000
  O   O10       1.0  0.0711196437798607  0.906024012156995  0.09808984269704635  1.0000
  O   O11       1.0  0.2641977085253072  0.5039299102268407  0.6412618493805389  1.0000
  O   O12       1.0  0.25225589269978443  0.17772456597651312  0.5509530290537582  1.0000
data_image24
_chemical_formula_structural       Mg2C8O12
_chemical_formula_sum              "Mg2 C8 O12"
_cell_length_a       7.872530813609877
_cell_length_b       7.872530813609877
_cell_length_c       7.368803275525341
_cell_angle_alpha    62.34925540174321
_cell_angle_beta     62.34925540174321
_cell_angle_gamma    54.72736521231912

_space_group_name_H-M_alt    "P 1"
_space_group_IT_number       1

loop_
  _space_group_symop_operation_xyz
  'x, y, z'

loop_
  _atom_site_type_symbol
  _atom_site_label
  _atom_site_symmetry_multiplicity
  _atom_site_fract_x
  _atom_site_fract_y
  _atom_site_fract_z
  _atom_site_occupancy
  Mg  Mg1       1.0  0.3968648526281381  0.5903041736528755  0.7699178018598982  1.0000
  Mg  Mg2       1.0  0.9486726179303551  0.18129645364140956  0.11645613579264334  1.0000
  C   C1        1.0  0.6748932894994453  0.3071431474461522  0.35575583653612614  1.0000
  C   C2        1.0  0.47579832837807845  0.38956693293111255  0.4416528957909338  1.0000
  C   C3        1.0  0.9179464099267705  0.8055602878967187  0.7855269891526547  1.0000
  C   C4        1.0  0.1468048048972865  0.7531979927301834  0.11597576522648019  1.0000
  C   C5        1.0  0.820481310675369  0.298080967144459  0.43894098222120814  1.0000
  C   C6        1.0  0.3328350065030643  0.049502992499582676  0.5185656261375414  1.0000
  C   C7        1.0  0.8936059387244075  0.5932072118748654  0.6214562631790048  1.0000
  C   C8        1.0  0.408954528013355  0.11434272769123839  0.05011851994682104  1.0000
  O   O1        1.0  0.7008264322594012  0.40572366785658126  0.5777509949139104  1.0000
  O   O2        1.0  0.43451187670827873  0.8586300363657673  0.5837494361914954  1.0000
  O   O3        1.0  0.8598275292725166  0.4608444609655312  0.7734979087096323  1.0000
  O   O4        1.0  0.5401038582215808  0.18201393241913086  0.9946074431854351  1.0000
  O   O5        1.0  0.01430254952252441  0.17547785305303865  0.41464312383312446  1.0000
  O   O6        1.0  0.2716470670489875  0.5520604712925372  0.11643025185282166  1.0000
  O   O7        1.0  0.934930232353762  0.7262348521913815  0.47196640389337174  1.0000
  O   O8        1.0  0.2821109448180263  0.08582588836155636  0.050574784938188344  1.0000
  O   O9        1.0  0.8169284842419476  0.7843068272638201  0.9571617245029134  1.0000
  O   O10       1.0  0.0818008606145933  0.9100628435460246  0.9764006972630078  1.0000
  O   O11       1.0  0.29649313767204644  0.5066486711148797  0.531981985568967  1.0000
  O   O12       1.0  0.25439586370042977  0.22734751314860613  0.4648011622706999  1.0000
data_image25
_chemical_formula_structural       Mg2C8O12
_chemical_formula_sum              "Mg2 C8 O12"
_cell_length_a       7.872530813609877
_cell_length_b       7.872530813609877
_cell_length_c       7.368803275525341
_cell_angle_alpha    62.34925540174321
_cell_angle_beta     62.34925540174321
_cell_angle_gamma    54.72736521231912

_space_group_name_H-M_alt    "P 1"
_space_group_IT_number       1

loop_
  _space_group_symop_operation_xyz
  'x, y, z'

loop_
  _atom_site_type_symbol
  _atom_site_label
  _atom_site_symmetry_multiplicity
  _atom_site_fract_x
  _atom_site_fract_y
  _atom_site_fract_z
  _atom_site_occupancy
  Mg  Mg1       1.0  0.4324134474506444  0.5550718919865567  0.715096696549194  1.0000
  Mg  Mg2       1.0  0.036007867484052644  0.1330005361829409  0.16127514218228356  1.0000
  C   C1        1.0  0.5457081589421411  0.31286003583845645  0.5052325194638223  1.0000
  C   C2        1.0  0.34089429177103586  0.4657424108621786  0.5562939115180903  1.0000
  C   C3        1.0  0.8744672357532377  0.8321497561265976  0.826836701384677  1.0000
  C   C4        1.0  0.13817807145783165  0.8440270680230358  0.9930876228328847  1.0000
  C   C5        1.0  0.760115559078473  0.3018823931715369  0.5164250394780178  1.0000
  C   C6        1.0  0.3812032549659077  0.9976621449027564  0.5005392843429028  1.0000
  C   C7        1.0  0.9888568661059329  0.4874945737082167  0.5455500656637061  1.0000
  C   C8        1.0  0.38939125977231687  0.125722873169303  0.09930209664530376  1.0000
  O   O1        1.0  0.7263971499686214  0.31497928850735946  0.7058000310719555  1.0000
  O   O2        1.0  0.4705678940126057  0.8117002629176483  0.596435281775513  1.0000
  O   O3        1.0  0.9823781970573457  0.38769184708092636  0.7240718508456159  1.0000
  O   O4        1.0  0.5699739417557806  0.08911003494917788  0.06713194717552651  1.0000
  O   O5        1.0  0.9368870589770445  0.2717444259749371  0.3687377905851265  1.0000
  O   O6        1.0  0.2084770327559974  0.6594201881524041  0.995346933515364  1.0000
  O   O7        1.0  0.9791613647770017  0.6303398360362321  0.3887392307008677  1.0000
  O   O8        1.0  0.27573616829595554  0.18504334299857939  0.9671842601906119  1.0000
  O   O9        1.0  0.7817753356018671  0.7645548385935814  0.9805279215627519  1.0000
  O   O10       1.0  0.969591481152676  0.014855724678541016  0.9902114323336119  1.0000
  O   O11       1.0  0.22179296330537765  0.6631603361071398  0.5521956513233143  1.0000
  O   O12       1.0  0.3697279528711803  0.16732824795513282  0.42828458243224005  1.0000
data_image26
_chemical_formula_structural       Mg2C8O12
_chemical_formula_sum              "Mg2 C8 O12"
_cell_length_a       7.872530813609877
_cell_length_b       7.872530813609877
_cell_length_c       7.368803275525341
_cell_angle_alpha    62.34925540174321
_cell_angle_beta     62.34925540174321
_cell_angle_gamma    54.72736521231912

_space_group_name_H-M_alt    "P 1"
_space_group_IT_number       1

loop_
  _space_group_symop_operation_xyz
  'x, y, z'

loop_
  _atom_site_type_symbol
  _atom_site_label
  _atom_site_symmetry_multiplicity
  _atom_site_fract_x
  _atom_site_fract_y
  _atom_site_fract_z
  _atom_site_occupancy
  Mg  Mg1       1.0  0.4520652890037294  0.5613821643480739  0.7215673248664959  1.0000
  Mg  Mg2       1.0  0.021150017948521692  0.1684081474307972  0.09368413276369819  1.0000
  C   C1        1.0  0.5634820387012893  0.47376209057009655  0.41179232346122624  1.0000
  C   C2        1.0  0.3595318131509802  0.5948083781356571  0.43093502838176295  1.0000
  C   C3        1.0  0.7912649399312743  0.8371649693994337  0.8344309060899757  1.0000
  C   C4        1.0  0.1315312688396498  0.8654493323328173  0.9874943008909185  1.0000
  C   C5        1.0  0.74003885814928  0.28838006304067376  0.48578976543208297  1.0000
  C   C6        1.0  0.47385132031821087  0.9785153533040996  0.5469110623568058  1.0000
  C   C7        1.0  0.9086096963384698  0.45393235067265725  0.672105198740587  1.0000
  C   C8        1.0  0.43212951030951513  0.18681180310345644  0.009450735283923484  1.0000
  O   O1        1.0  0.7327366759846552  0.24256504670444812  0.6797015040890566  1.0000
  O   O2        1.0  0.5086316960803816  0.8145989736944775  0.5538064391946514  1.0000
  O   O3        1.0  0.9271662669982853  0.3485251438252976  0.8506423198409088  1.0000
  O   O4        1.0  0.5714545650159026  0.079121407515511  0.11647170601623347  1.0000
  O   O5        1.0  0.9220039035137096  0.19732532825984397  0.35759825814203533  1.0000
  O   O6        1.0  0.24307998153301907  0.684092257474497  0.9535946033371532  1.0000
  O   O7        1.0  0.8880674020342499  0.5136111603655368  0.500391863451602  1.0000
  O   O8        1.0  0.3130656237219825  0.34560115556835025  0.9040740587856919  1.0000
  O   O9        1.0  0.8209201318403514  0.6942710537197427  0.9969855674352435  1.0000
  O   O10       1.0  0.9626575015462168  0.9165189731633662  0.13870904424103744  1.0000
  O   O11       1.0  0.18373664923288457  0.6757749208363758  0.40256834051979073  1.0000
  O   O12       1.0  0.4222977209275618  0.15256175897837143  0.5281190418267103  1.0000
data_image27
_chemical_formula_structural       Mg2C8O12
_chemical_formula_sum              "Mg2 C8 O12"
_cell_length_a       7.872530813609877
_cell_length_b       7.872530813609877
_cell_length_c       7.368803275525341
_cell_angle_alpha    62.34925540174321
_cell_angle_beta     62.34925540174321
_cell_angle_gamma    54.72736521231912

_space_group_name_H-M_alt    "P 1"
_space_group_IT_number       1

loop_
  _space_group_symop_operation_xyz
  'x, y, z'

loop_
  _atom_site_type_symbol
  _atom_site_label
  _atom_site_symmetry_multiplicity
  _atom_site_fract_x
  _atom_site_fract_y
  _atom_site_fract_z
  _atom_site_occupancy
  Mg  Mg1       1.0  0.43200680558680593  0.5457275100251083  0.7106333354831965  1.0000
  Mg  Mg2       1.0  0.9739553637797665  0.24976128511253576  0.1118270020883632  1.0000
  C   C1        1.0  0.6082185807933888  0.4342298760357379  0.38826083961479124  1.0000
  C   C2        1.0  0.4201677652121186  0.5980542353849206  0.40929153795351714  1.0000
  C   C3        1.0  0.7433050512043637  0.7982324194526008  0.8198638440910163  1.0000
  C   C4        1.0  0.13969311996761413  0.8466957092377088  0.014477297226490946  1.0000
  C   C5        1.0  0.7624118466377956  0.26395000322307394  0.5165348979145629  1.0000
  C   C6        1.0  0.5422110136252654  0.9324697673638398  0.5589183022208941  1.0000
  C   C7        1.0  0.8981182946533635  0.5144652970657232  0.6222136769683374  1.0000
  C   C8        1.0  0.3633082528739098  0.17147658088809994  0.07572881633603412  1.0000
  O   O1        1.0  0.6886174881920573  0.23978239430412154  0.7021194561841646  1.0000
  O   O2        1.0  0.45524030458513076  0.8299770312664269  0.5878776073113157  1.0000
  O   O3        1.0  0.8483327278941829  0.43868331251216397  0.8230947052401473  1.0000
  O   O4        1.0  0.512714644456726  0.048024021197099725  0.15216743830334312  1.0000
  O   O5        1.0  0.9708557590353578  0.15911284585194543  0.4195230960311625  1.0000
  O   O6        1.0  0.27750432946315606  0.6726151318269324  0.01564622370682769  1.0000
  O   O7        1.0  0.9708106319960994  0.5164521326748317  0.43619305992004326  1.0000
  O   O8        1.0  0.24818934312924015  0.2680493609148249  0.9687925151604142  1.0000
  O   O9        1.0  0.7968180666284714  0.6568867640805274  0.9715789524510082  1.0000
  O   O10       1.0  0.9900077917204942  0.009004299512449743  0.047847487585691253  1.0000
  O   O11       1.0  0.22360129680014873  0.7095579616495514  0.3758424666164349  1.0000
  O   O12       1.0  0.5572434198876486  0.10550861522871924  0.44997171117977675  1.0000
data_image28
_chemical_formula_structural       Mg2C8O12
_chemical_formula_sum              "Mg2 C8 O12"
_cell_length_a       7.872530813609877
_cell_length_b       7.872530813609877
_cell_length_c       7.368803275525341
_cell_angle_alpha    62.34925540174321
_cell_angle_beta     62.34925540174321
_cell_angle_gamma    54.72736521231912

_space_group_name_H-M_alt    "P 1"
_space_group_IT_number       1

loop_
  _space_group_symop_operation_xyz
  'x, y, z'

loop_
  _atom_site_type_symbol
  _atom_site_label
  _atom_site_symmetry_multiplicity
  _atom_site_fract_x
  _atom_site_fract_y
  _atom_site_fract_z
  _atom_site_occupancy
  Mg  Mg1       1.0  0.371603242345902  0.6886355791843364  0.6758888375289634  1.0000
  Mg  Mg2       1.0  0.9287444293159611  0.2762657598336747  0.07983802453862948  1.0000
  C   C1        1.0  0.5995607324086771  0.46054196749974236  0.28555829130970994  1.0000
  C   C2        1.0  0.4082305194148701  0.6658744343509415  0.2877400400195602  1.0000
  C   C3        1.0  0.536562217930826  0.8834014222510423  0.016649934005737554  1.0000
  C   C4        1.0  0.2709857447096462  0.7102297372141362  0.10265670800563591  1.0000
  C   C5        1.0  0.6810013493826175  0.3112817360717946  0.4710873431599332  1.0000
  C   C6        1.0  0.6195035408496805  0.9052919371120024  0.5795799798419  1.0000
  C   C7        1.0  0.9264072859834813  0.4131918820121337  0.5945247646461119  1.0000
  C   C8        1.0  0.3758004121754397  0.11584896714712428  0.06647102798700644  1.0000
  O   O1        1.0  0.6039710250183178  0.39145359794183626  0.6482759856048245  1.0000
  O   O2        1.0  0.4537811754637975  0.8893882706375495  0.6916229876476226  1.0000
  O   O3        1.0  0.014877313013468063  0.2591652936310127  0.7267092871546939  1.0000
  O   O4        1.0  0.4342522009116741  0.1112186403924279  0.20997735836846254  1.0000
  O   O5        1.0  0.8743668203391612  0.16644874900156248  0.41463212210626277  1.0000
  O   O6        1.0  0.3549004293367597  0.5594727399145598  0.00902510957209302  1.0000
  O   O7        1.0  0.9241214621640319  0.5206363118606118  0.42027183790775063  1.0000
  O   O8        1.0  0.2147340746989622  0.22039612663706487  0.9643374916874892  1.0000
  O   O9        1.0  0.7091785599717816  0.8186988392062989  0.9027154936456122  1.0000
  O   O10       1.0  0.0970107851918023  0.8928254403512316  0.11824372304533606  1.0000
  O   O11       1.0  0.2781667875188081  0.7333000383802176  0.4669564283465976  1.0000
  O   O12       1.0  0.7853412044502797  0.9027357246920771  0.48140511292005006  1.0000
data_image29
_chemical_formula_structural       Mg2C8O12
_chemical_formula_sum              "Mg2 C8 O12"
_cell_length_a       7.872530813609877
_cell_length_b       7.872530813609877
_cell_length_c       7.368803275525341
_cell_angle_alpha    62.34925540174321
_cell_angle_beta     62.34925540174321
_cell_angle_gamma    54.72736521231912

_space_group_name_H-M_alt    "P 1"
_space_group_IT_number       1

loop_
  _space_group_symop_operation_xyz
  'x, y, z'

loop_
  _atom_site_type_symbol
  _atom_site_label
  _atom_site_symmetry_multiplicity
  _atom_site_fract_x
  _atom_site_fract_y
  _atom_site_fract_z
  _atom_site_occupancy
  Mg  Mg1       1.0  0.37888538071535416  0.6536183644367504  0.7645720255420072  1.0000
  Mg  Mg2       1.0  0.9182168448294027  0.2431054034827555  0.08903566213916958  1.0000
  C   C1        1.0  0.5328172105001333  0.48330485988968597  0.3275609558357484  1.0000
  C   C2        1.0  0.33292251674435064  0.640076119484016  0.3504345038921987  1.0000
  C   C3        1.0  0.5498657187127362  0.005891724020028022  0.8943029602166958  1.0000
  C   C4        1.0  0.2796781734349242  0.7343620317001828  0.1429104178774807  1.0000
  C   C5        1.0  0.630798211837801  0.3564595161550724  0.48782319265395996  1.0000
  C   C6        1.0  0.6251649440662621  0.8822970563922242  0.5050362042619919  1.0000
  C   C7        1.0  0.08374157194504628  0.2989931147588975  0.5507229307371132  1.0000
  C   C8        1.0  0.3361305667162989  0.14786181332362563  0.08475068516432493  1.0000
  O   O1        1.0  0.6245235496715091  0.3936817004463343  0.6504738829021313  1.0000
  O   O2        1.0  0.4471757183921645  0.8987105179551148  0.6111922028675079  1.0000
  O   O3        1.0  0.983494737932719  0.2248241886009753  0.7308096921231043  1.0000
  O   O4        1.0  0.4167270651921896  0.10785415339004177  0.21897060921379263  1.0000
  O   O5        1.0  0.7675884304531676  0.17833944723599204  0.4335990141937467  1.0000
  O   O6        1.0  0.4223339541649632  0.6369373562289077  0.9998301924653317  1.0000
  O   O7        1.0  0.08182951192389772  0.4310301793710038  0.3787310521914549  1.0000
  O   O8        1.0  0.1430745836750383  0.24846114510681105  0.08643341506193258  1.0000
  O   O9        1.0  0.7389666490028263  0.9183780490989037  0.8754409982861369  1.0000
  O   O10       1.0  0.11412442205513545  0.908999857877814  0.07901528447379168  1.0000
  O   O11       1.0  0.23109212393042997  0.7439065051737584  0.48173362391887814  1.0000
  O   O12       1.0  0.8118030360291792  0.8141486635315657  0.40643701068607996  1.0000
data_image30
_chemical_formula_structural       Mg2C8O12
_chemical_formula_sum              "Mg2 C8 O12"
_cell_length_a       7.872530813609877
_cell_length_b       7.872530813609877
_cell_length_c       7.368803275525341
_cell_angle_alpha    62.34925540174321
_cell_angle_beta     62.34925540174321
_cell_angle_gamma    54.72736521231912

_space_group_name_H-M_alt    "P 1"
_space_group_IT_number       1

loop_
  _space_group_symop_operation_xyz
  'x, y, z'

loop_
  _atom_site_type_symbol
  _atom_site_label
  _atom_site_symmetry_multiplicity
  _atom_site_fract_x
  _atom_site_fract_y
  _atom_site_fract_z
  _atom_site_occupancy
  Mg  Mg1       1.0  0.3506733417738972  0.6656127551470743  0.7650803723815681  1.0000
  Mg  Mg2       1.0  0.7477658325063232  0.2584480168342787  0.13017146710878075  1.0000
  C   C1        1.0  0.5406745697572902  0.5461479584174026  0.26083113939447483  1.0000
  C   C2        1.0  0.3317322844366418  0.6674391767875124  0.3598184888688467  1.0000
  C   C3        1.0  0.5570000403693294  0.07850875379422306  0.7778493956803462  1.0000
  C   C4        1.0  0.19070328253463195  0.7703985253071232  0.20119018805098962  1.0000
  C   C5        1.0  0.6531911076337306  0.4213071297373995  0.4361429160949794  1.0000
  C   C6        1.0  0.7045445945020083  0.7507932778179442  0.5352176318111965  1.0000
  C   C7        1.0  0.1472551501368775  0.24312172366544924  0.6192217660610447  1.0000
  C   C8        1.0  0.34622387585512243  0.15952902232906685  0.06467803748030021  1.0000
  O   O1        1.0  0.5746589319992401  0.42688701268406126  0.644877311316758  1.0000
  O   O2        1.0  0.5219565933342196  0.8114806826494705  0.6232498427281995  1.0000
  O   O3        1.0  0.031365296296794076  0.1661108395589477  0.7896709496582166  1.0000
  O   O4        1.0  0.5068584130326197  0.04178933542280537  0.13055529809862687  1.0000
  O   O5        1.0  0.8201065513476066  0.25014806017751323  0.38637077860375174  1.0000
  O   O6        1.0  0.2956039293099229  0.6224361403042129  0.08001499150254981  1.0000
  O   O7        1.0  0.18338850353457628  0.38032763630627814  0.4869163061333432  1.0000
  O   O8        1.0  0.16102222724977364  0.28697157987943966  0.060690564287374515  1.0000
  O   O9        1.0  0.7352537341253066  0.9436487113114681  0.7477422813707061  1.0000
  O   O10       1.0  0.047625848082152866  0.955912824336094  0.15455415901197542  1.0000
  O   O11       1.0  0.2806694163886644  0.7816425585277734  0.47193217478332306  1.0000
  O   O12       1.0  0.8494233930093533  0.7312619890658132  0.37890439562224565  1.0000
data_image31
_chemical_formula_structural       Mg2C8O12
_chemical_formula_sum              "Mg2 C8 O12"
_cell_length_a       7.872530813609877
_cell_length_b       7.872530813609877
_cell_length_c       7.368803275525341
_cell_angle_alpha    62.34925540174321
_cell_angle_beta     62.34925540174321
_cell_angle_gamma    54.72736521231912

_space_group_name_H-M_alt    "P 1"
_space_group_IT_number       1

loop_
  _space_group_symop_operation_xyz
  'x, y, z'

loop_
  _atom_site_type_symbol
  _atom_site_label
  _atom_site_symmetry_multiplicity
  _atom_site_fract_x
  _atom_site_fract_y
  _atom_site_fract_z
  _atom_site_occupancy
  Mg  Mg1       1.0  0.3272648010419413  0.6468712137132985  0.6780219580599548  1.0000
  Mg  Mg2       1.0  0.8710847042053439  0.2879745291152714  0.11183686242987022  1.0000
  C   C1        1.0  0.5158268047352166  0.47911837934530077  0.2953821050101096  1.0000
  C   C2        1.0  0.32602772051398904  0.6958673960485072  0.26368129888984554  1.0000
  C   C3        1.0  0.7705693130418858  0.9022470201387359  0.699070423132917  1.0000
  C   C4        1.0  0.20813772103129508  0.7750809859173006  0.12107921187438984  1.0000
  C   C5        1.0  0.6479156682228183  0.3948196400554545  0.44009081061195576  1.0000
  C   C6        1.0  0.7077548256310109  0.6675897512572614  0.5148313459908374  1.0000
  C   C7        1.0  0.07560327891646113  0.3334392096744045  0.7279455021331341  1.0000
  C   C8        1.0  0.332099093156608  0.2807238197627962  0.08161412134476187  1.0000
  O   O1        1.0  0.5393475635894298  0.3769993055027683  0.6346176436302183  1.0000
  O   O2        1.0  0.5409881562380237  0.7299884203914198  0.6708270594875286  1.0000
  O   O3        1.0  0.9465585397714505  0.24176178015921093  0.8171130725279117  1.0000
  O   O4        1.0  0.4560331860453801  0.1520974609298197  0.17514757848339735  1.0000
  O   O5        1.0  0.8381740215501269  0.22228424083089016  0.4301271469109176  1.0000
  O   O6        1.0  0.2492907835174043  0.6962246738562208  0.984828617111794  1.0000
  O   O7        1.0  0.07969814461879467  0.5168003809314398  0.6536298092448936  1.0000
  O   O8        1.0  0.1907754542632427  0.40114360946945515  0.0008624587246579551  1.0000
  O   O9        1.0  0.76032275187955  0.7910423629630728  0.8737907368262244  1.0000
  O   O10       1.0  0.04147199461691515  0.9545669118586789  0.15026020037851284  1.0000
  O   O11       1.0  0.2509281511804313  0.762350446236606  0.4273166189211748  1.0000
  O   O12       1.0  0.8786819075038612  0.6175344893201086  0.3807559258769121  1.0000
data_image32
_chemical_formula_structural       Mg2C8O12
_chemical_formula_sum              "Mg2 C8 O12"
_cell_length_a       7.872530813609877
_cell_length_b       7.872530813609877
_cell_length_c       7.368803275525341
_cell_angle_alpha    62.34925540174321
_cell_angle_beta     62.34925540174321
_cell_angle_gamma    54.72736521231912

_space_group_name_H-M_alt    "P 1"
_space_group_IT_number       1

loop_
  _space_group_symop_operation_xyz
  'x, y, z'

loop_
  _atom_site_type_symbol
  _atom_site_label
  _atom_site_symmetry_multiplicity
  _atom_site_fract_x
  _atom_site_fract_y
  _atom_site_fract_z
  _atom_site_occupancy
  Mg  Mg1       1.0  0.36250300417805165  0.6157315389938371  0.6682007401416431  1.0000
  Mg  Mg2       1.0  0.01249537734835417  0.21517072294556802  0.14793549683937013  1.0000
  C   C1        1.0  0.5248124758772577  0.47637278437695174  0.22099956015856015  1.0000
  C   C2        1.0  0.4115124568426966  0.6911005589636585  0.18924194910024408  1.0000
  C   C3        1.0  0.6609020496018347  0.9032251729581686  0.7367676441240264  1.0000
  C   C4        1.0  0.2515405678666187  0.7717813336770666  0.07511451232138079  1.0000
  C   C5        1.0  0.5808229402566294  0.3291952892595776  0.477738582430413  1.0000
  C   C6        1.0  0.6811610836319009  0.7247064330686099  0.40770494187546524  1.0000
  C   C7        1.0  0.986561267802173  0.3667803996856058  0.7544410616063867  1.0000
  C   C8        1.0  0.22905841434599095  0.2735958993048357  0.3264385050012164  1.0000
  O   O1        1.0  0.47263425328313935  0.34918956341699886  0.6529830543415073  1.0000
  O   O2        1.0  0.5282706112923092  0.823473652548372  0.5308391286660339  1.0000
  O   O3        1.0  0.9479032422422501  0.34551977180601084  0.6310658123507187  1.0000
  O   O4        1.0  0.2817903294652087  0.2977891458193969  0.4335930788900857  1.0000
  O   O5        1.0  0.8031862786433646  0.25315635823900895  0.41223450157685776  1.0000
  O   O6        1.0  0.353015166785146  0.6399641180466763  0.9493894045975444  1.0000
  O   O7        1.0  0.050944771392112655  0.4638614513760145  0.7891766949207139  1.0000
  O   O8        1.0  0.22833097708266606  0.21627248618754802  0.2047386146243253  1.0000
  O   O9        1.0  0.701678736343277  0.8018445409753155  0.8953457531211503  1.0000
  O   O10       1.0  0.10333657090926238  0.9673403632907814  0.04741884775924657  1.0000
  O   O11       1.0  0.37871011519245773  0.8193227067305687  0.2811581448033482  1.0000
  O   O12       1.0  0.8485234738057541  0.6371645793228484  0.2968145918867838  1.0000
data_image33
_chemical_formula_structural       Mg2C8O12
_chemical_formula_sum              "Mg2 C8 O12"
_cell_length_a       7.872530813609877
_cell_length_b       7.872530813609877
_cell_length_c       7.368803275525341
_cell_angle_alpha    62.34925540174321
_cell_angle_beta     62.34925540174321
_cell_angle_gamma    54.72736521231912

_space_group_name_H-M_alt    "P 1"
_space_group_IT_number       1

loop_
  _space_group_symop_operation_xyz
  'x, y, z'

loop_
  _atom_site_type_symbol
  _atom_site_label
  _atom_site_symmetry_multiplicity
  _atom_site_fract_x
  _atom_site_fract_y
  _atom_site_fract_z
  _atom_site_occupancy
  Mg  Mg1       1.0  0.3297469844274149  0.707511854274699  0.5940445933281587  1.0000
  Mg  Mg2       1.0  0.05713360091788442  0.07181831425153658  0.18384679579800445  1.0000
  C   C1        1.0  0.5747812182802932  0.5277467860599502  0.27035521296865916  1.0000
  C   C2        1.0  0.38562855480688746  0.6600933580606442  0.22825022181835347  1.0000
  C   C3        1.0  0.5845541010200492  0.9950529189866439  0.7799252378399133  1.0000
  C   C4        1.0  0.3367632352825199  0.7088149375744658  0.03137526970275098  1.0000
  C   C5        1.0  0.6499416799657003  0.3729227462234922  0.48033999396105154  1.0000
  C   C6        1.0  0.6677395702131714  0.83028530724008  0.4091668783617243  1.0000
  C   C7        1.0  0.9668081016610943  0.33014912229173626  0.814548024087503  1.0000
  C   C8        1.0  0.2661671848564716  0.30218092872082714  0.228689884027794  1.0000
  O   O1        1.0  0.6181175202934369  0.4389243521307561  0.6058086179194161  1.0000
  O   O2        1.0  0.5265513196188683  0.859002408963022  0.5711111854730554  1.0000
  O   O3        1.0  0.9544611576361238  0.30618248624440414  0.6748773803413336  1.0000
  O   O4        1.0  0.26370618889672315  0.40035688461090746  0.32159423091649697  1.0000
  O   O5        1.0  0.7754704623470007  0.16743739410882405  0.45745509440333937  1.0000
  O   O6        1.0  0.40044909327427985  0.5882625189547361  0.919987203342172  1.0000
  O   O7        1.0  0.9609027717612687  0.3182920735240686  0.9787699312334471  1.0000
  O   O8        1.0  0.22796954176403497  0.17646228044394974  0.21753313554226028  1.0000
  O   O9        1.0  0.7010506496856139  0.8214612403860418  0.8441437896662265  1.0000
  O   O10       1.0  0.2695849460128739  0.925775329678889  0.9316972515512508  1.0000
  O   O11       1.0  0.1924817304676931  0.7653796194910333  0.3641528442682047  1.0000
  O   O12       1.0  0.710004854910081  0.7838328203558956  0.255346858174443  1.0000
data_image34
_chemical_formula_structural       Mg2C8O12
_chemical_formula_sum              "Mg2 C8 O12"
_cell_length_a       7.872530813609877
_cell_length_b       7.872530813609877
_cell_length_c       7.368803275525341
_cell_angle_alpha    62.34925540174321
_cell_angle_beta     62.34925540174321
_cell_angle_gamma    54.72736521231912

_space_group_name_H-M_alt    "P 1"
_space_group_IT_number       1

loop_
  _space_group_symop_operation_xyz
  'x, y, z'

loop_
  _atom_site_type_symbol
  _atom_site_label
  _atom_site_symmetry_multiplicity
  _atom_site_fract_x
  _atom_site_fract_y
  _atom_site_fract_z
  _atom_site_occupancy
  Mg  Mg1       1.0  0.4054617039183396  0.6495126577441821  0.6383332441492287  1.0000
  Mg  Mg2       1.0  0.08558686278196226  0.07776057830400922  0.2016962326218199  1.0000
  C   C1        1.0  0.5610500608193596  0.44788498346910494  0.25187502659418326  1.0000
  C   C2        1.0  0.393096638032744  0.6455136013616017  0.22933450447128043  1.0000
  C   C3        1.0  0.668058628639761  0.9121983805587831  0.9506980870009818  1.0000
  C   C4        1.0  0.31905187839130866  0.7031603107730797  0.05231299240956705  1.0000
  C   C5        1.0  0.6895805759631257  0.3427288760383104  0.38150221380164534  1.0000
  C   C6        1.0  0.6049873903733798  0.8673627959417287  0.4295604309816289  1.0000
  C   C7        1.0  0.9270926281616425  0.2980223235484929  0.8021758739516447  1.0000
  C   C8        1.0  0.22098331545305328  0.35701827645895734  0.2217409378374935  1.0000
  O   O1        1.0  0.6826432716586932  0.4370097674274228  0.48888764469119966  1.0000
  O   O2        1.0  0.4113367820523075  0.9307769276980266  0.501141134592142  1.0000
  O   O3        1.0  0.99074230773592  0.23725449451905567  0.6478976475457734  1.0000
  O   O4        1.0  0.3320282959863988  0.3035927543095879  0.31985393839365406  1.0000
  O   O5        1.0  0.7927408299732025  0.1140500383623739  0.4293248539612491  1.0000
  O   O6        1.0  0.3838373633937213  0.598347796654258  0.9370418272113802  1.0000
  O   O7        1.0  0.9148145104864764  0.3695650422309672  0.9199545286706319  1.0000
  O   O8        1.0  0.172838481794646  0.29303365538579307  0.1353101190743995  1.0000
  O   O9        1.0  0.567631495953304  0.9895923726221856  0.8263259541194584  1.0000
  O   O10       1.0  0.17984065015950554  0.9073098003205108  0.013009742458879443  1.0000
  O   O11       1.0  0.2520398047458096  0.7686530229996151  0.38367617084285993  1.0000
  O   O12       1.0  0.797617149123639  0.7964426430583444  0.38876847405231735  1.0000
data_image35
_chemical_formula_structural       Mg2C8O12
_chemical_formula_sum              "Mg2 C8 O12"
_cell_length_a       7.872530813609877
_cell_length_b       7.872530813609877
_cell_length_c       7.368803275525341
_cell_angle_alpha    62.34925540174321
_cell_angle_beta     62.34925540174321
_cell_angle_gamma    54.72736521231912

_space_group_name_H-M_alt    "P 1"
_space_group_IT_number       1

loop_
  _space_group_symop_operation_xyz
  'x, y, z'

loop_
  _atom_site_type_symbol
  _atom_site_label
  _atom_site_symmetry_multiplicity
  _atom_site_fract_x
  _atom_site_fract_y
  _atom_site_fract_z
  _atom_site_occupancy
  Mg  Mg1       1.0  0.31058903926995574  0.7209436593589693  0.639160715929973  1.0000
  Mg  Mg2       1.0  0.07989494350592348  0.12388095418988695  0.1842580057172688  1.0000
  C   C1        1.0  0.5992339768508608  0.5015076596508046  0.25515477376183193  1.0000
  C   C2        1.0  0.42723716381823523  0.6472526769388973  0.20567457284769478  1.0000
  C   C3        1.0  0.5292925577824475  0.9478568679387599  0.9209179246192049  1.0000
  C   C4        1.0  0.3087799037725187  0.7171735436378615  0.029122581016419024  1.0000
  C   C5        1.0  0.6845567370143297  0.366325530009526  0.4110709477259499  1.0000
  C   C6        1.0  0.7153219809086948  0.7743029142262738  0.5054930891440499  1.0000
  C   C7        1.0  0.03342174216114624  0.1539588086912645  0.7406058519913749  1.0000
  C   C8        1.0  0.14475957081020097  0.3738751075100864  0.2682340817407911  1.0000
  O   O1        1.0  0.6188610820763484  0.4676558610961752  0.5372710422527607  1.0000
  O   O2        1.0  0.5259046360507835  0.8417265240604482  0.502593777177884  1.0000
  O   O3        1.0  0.023270379529801488  0.052180337414687264  0.6700683913824907  1.0000
  O   O4        1.0  0.2690446971702081  0.34077740014995134  0.34946098780813895  1.0000
  O   O5        1.0  0.8316973685785521  0.1546469028660385  0.40709696863738903  1.0000
  O   O6        1.0  0.39563749457467745  0.5631143284206159  0.9266498518636657  1.0000
  O   O7        1.0  0.9972081702173796  0.271829420266208  0.8332816259900218  1.0000
  O   O8        1.0  0.10325766707592426  0.3800898347619668  0.11975336561532757  1.0000
  O   O9        1.0  0.5338710141899049  0.11996854433970117  0.8285943125366886  1.0000
  O   O10       1.0  0.12160695950175214  0.867648921128817  0.020721623060191135  1.0000
  O   O11       1.0  0.2923844132422663  0.8557108144064806  0.2991997834422581  1.0000
  O   O12       1.0  0.8747488988138967  0.720398545027244  0.5066403451735542  1.0000
data_image36
_chemical_formula_structural       Mg2C8O12
_chemical_formula_sum              "Mg2 C8 O12"
_cell_length_a       7.872530813609877
_cell_length_b       7.872530813609877
_cell_length_c       7.368803275525341
_cell_angle_alpha    62.34925540174321
_cell_angle_beta     62.34925540174321
_cell_angle_gamma    54.72736521231912

_space_group_name_H-M_alt    "P 1"
_space_group_IT_number       1

loop_
  _space_group_symop_operation_xyz
  'x, y, z'

loop_
  _atom_site_type_symbol
  _atom_site_label
  _atom_site_symmetry_multiplicity
  _atom_site_fract_x
  _atom_site_fract_y
  _atom_site_fract_z
  _atom_site_occupancy
  Mg  Mg1       1.0  0.43559823964819944  0.7040169507758547  0.59462675283207  1.0000
  Mg  Mg2       1.0  0.9943516095423572  0.1545574978257001  0.11016664482168081  1.0000
  C   C1        1.0  0.5368533614657287  0.5648053828460775  0.24824061233910347  1.0000
  C   C2        1.0  0.3301648837205731  0.7267154195461959  0.24718122814067803  1.0000
  C   C3        1.0  0.4960174827577233  0.14426538889091245  0.8864073982703008  1.0000
  C   C4        1.0  0.20120722889341863  0.7480514787535268  0.11620219542693234  1.0000
  C   C5        1.0  0.6714681393284458  0.41336014195922693  0.39586195086525333  1.0000
  C   C6        1.0  0.8015738079961146  0.7167890014381612  0.6055182579815941  1.0000
  C   C7        1.0  0.13071973632085276  0.056681295558492543  0.7089501660548417  1.0000
  C   C8        1.0  0.14892834977768488  0.3514531868181289  0.18208831569632222  1.0000
  O   O1        1.0  0.6826115090969429  0.43294810957855134  0.5479322092368742  1.0000
  O   O2        1.0  0.6783258726483268  0.8161271787075587  0.5013569805016245  1.0000
  O   O3        1.0  0.07817802247468308  0.9501754028273195  0.6685437998515826  1.0000
  O   O4        1.0  0.1066411299539422  0.3891206551822517  0.3386807624434558  1.0000
  O   O5        1.0  0.7928523742749709  0.2510900518972333  0.329513319788224  1.0000
  O   O6        1.0  0.33315203742409094  0.725673549789803  0.9012330779833069  1.0000
  O   O7        1.0  0.06490837759859036  0.20405462689762055  0.7743689741920026  1.0000
  O   O8        1.0  0.0821321504217985  0.3636676806040966  0.06193256680599757  1.0000
  O   O9        1.0  0.6001872684748504  0.950098900375655  0.9401451683641817  1.0000
  O   O10       1.0  0.994836795560551  0.8540866216838496  0.1507144464015312  1.0000
  O   O11       1.0  0.2301437703933132  0.917681940144172  0.2561918908012557  1.0000
  O   O12       1.0  0.9783082439695132  0.5807876875499833  0.6702622419424507  1.0000
data_image37
_chemical_formula_structural       Mg2C8O12
_chemical_formula_sum              "Mg2 C8 O12"
_cell_length_a       7.872530813609877
_cell_length_b       7.872530813609877
_cell_length_c       7.368803275525341
_cell_angle_alpha    62.34925540174321
_cell_angle_beta     62.34925540174321
_cell_angle_gamma    54.72736521231912

_space_group_name_H-M_alt    "P 1"
_space_group_IT_number       1

loop_
  _space_group_symop_operation_xyz
  'x, y, z'

loop_
  _atom_site_type_symbol
  _atom_site_label
  _atom_site_symmetry_multiplicity
  _atom_site_fract_x
  _atom_site_fract_y
  _atom_site_fract_z
  _atom_site_occupancy
  Mg  Mg1       1.0  0.4731223595021517  0.6881122320080038  0.6180084751182725  1.0000
  Mg  Mg2       1.0  0.8891007064445071  0.08586116602939792  0.1708751898080048  1.0000
  C   C1        1.0  0.3871172825334307  0.6138380904409859  0.4515886379018433  1.0000
  C   C2        1.0  0.3101341389770523  0.7443886305125811  0.29205134334767696  1.0000
  C   C3        1.0  0.7170163659966675  0.90619826531128  0.937874180831288  1.0000
  C   C4        1.0  0.33229355546872014  0.7040618568928545  0.08044759397350051  1.0000
  C   C5        1.0  0.5738421301687178  0.41301931332694675  0.4156196522101907  1.0000
  C   C6        1.0  0.8674628311958852  0.7477473114978891  0.5114207017943324  1.0000
  C   C7        1.0  0.023424972955031764  0.14885545654905616  0.6999544148646798  1.0000
  C   C8        1.0  0.12499796406543275  0.37976662156101954  0.15973460230818604  1.0000
  O   O1        1.0  0.6116928431392736  0.41391486597921895  0.5744018742223262  1.0000
  O   O2        1.0  0.6861712938461013  0.8395981843922533  0.4760247543124363  1.0000
  O   O3        1.0  0.0751722276221336  0.006877340976324244  0.6490732009340864  1.0000
  O   O4        1.0  0.13582356002442406  0.38299219099938264  0.3229258670039761  1.0000
  O   O5        1.0  0.6816588765099383  0.30511260923932293  0.29573605061926067  1.0000
  O   O6        1.0  0.49867857153525647  0.6213173190986372  0.9482197918745532  1.0000
  O   O7        1.0  0.9834600655864127  0.2721311236503055  0.7850308068873393  1.0000
  O   O8        1.0  0.15996597767121684  0.32220650606080037  0.02462261950924871  1.0000
  O   O9        1.0  0.6131828320252988  0.07473099141369977  0.8538326516023261  1.0000
  O   O10       1.0  0.1408802301019386  0.7931353021074481  0.061325589906774135  1.0000
  O   O11       1.0  0.16206519101478334  0.9436207123519994  0.26183485364826936  1.0000
  O   O12       1.0  0.9613225641716974  0.6360608381871075  0.6424019537147025  1.0000
data_image38
_chemical_formula_structural       Mg2C8O12
_chemical_formula_sum              "Mg2 C8 O12"
_cell_length_a       7.872530813609877
_cell_length_b       7.872530813609877
_cell_length_c       7.368803275525341
_cell_angle_alpha    62.34925540174321
_cell_angle_beta     62.34925540174321
_cell_angle_gamma    54.72736521231912

_space_group_name_H-M_alt    "P 1"
_space_group_IT_number       1

loop_
  _space_group_symop_operation_xyz
  'x, y, z'

loop_
  _atom_site_type_symbol
  _atom_site_label
  _atom_site_symmetry_multiplicity
  _atom_site_fract_x
  _atom_site_fract_y
  _atom_site_fract_z
  _atom_site_occupancy
  Mg  Mg1       1.0  0.4234491523658633  0.7074828336121276  0.6438765130333838  1.0000
  Mg  Mg2       1.0  0.894713719898306  0.03149673343458535  0.21982197089707484  1.0000
  C   C1        1.0  0.4054207003267717  0.6208490679536186  0.3937511909857566  1.0000
  C   C2        1.0  0.2974596911927169  0.7908900929613565  0.25334820531507535  1.0000
  C   C3        1.0  0.763841197990965  0.7828225029204819  0.0003169100855424656  1.0000
  C   C4        1.0  0.26724080977050346  0.705074250364512  0.10949572497190833  1.0000
  C   C5        1.0  0.5886018854078765  0.4157844914565619  0.4305970240824913  1.0000
  C   C6        1.0  0.7408158254016131  0.7816130044467704  0.4853682740421358  1.0000
  C   C7        1.0  0.12409515307591357  0.1197711042775165  0.7044075316408522  1.0000
  C   C8        1.0  0.09093701384702801  0.4465088397201532  0.15847547111694893  1.0000
  O   O1        1.0  0.6465723012521623  0.399516459061131  0.5850966350737695  1.0000
  O   O2        1.0  0.670995752841306  0.8880400712912943  0.31929078142715095  1.0000
  O   O3        1.0  0.3021791800428415  0.03303394299758359  0.6061881534956653  1.0000
  O   O4        1.0  0.05987645232114457  0.4071186428342942  0.35781162636563857  1.0000
  O   O5        1.0  0.6965099805973122  0.285723691577817  0.3045595664250139  1.0000
  O   O6        1.0  0.43145788522440814  0.6079570826267211  0.9536001098380553  1.0000
  O   O7        1.0  0.9595910528657514  0.18554597710369572  0.7984937968806002  1.0000
  O   O8        1.0  0.13632518533374186  0.4842172423938014  0.968297914509323  1.0000
  O   O9        1.0  0.8068380084306639  0.9244168006581996  0.9023616457938856  1.0000
  O   O10       1.0  0.06172693822784037  0.759323342863585  0.13930136842382346  1.0000
  O   O11       1.0  0.18958093442065996  0.9928888218064439  0.2554270729616188  1.0000
  O   O12       1.0  0.8601146541887088  0.6921210939465605  0.59975549103306  1.0000
data_image39
_chemical_formula_structural       Mg2C8O12
_chemical_formula_sum              "Mg2 C8 O12"
_cell_length_a       7.872530813609877
_cell_length_b       7.872530813609877
_cell_length_c       7.368803275525341
_cell_angle_alpha    62.34925540174321
_cell_angle_beta     62.34925540174321
_cell_angle_gamma    54.72736521231912

_space_group_name_H-M_alt    "P 1"
_space_group_IT_number       1

loop_
  _space_group_symop_operation_xyz
  'x, y, z'

loop_
  _atom_site_type_symbol
  _atom_site_label
  _atom_site_symmetry_multiplicity
  _atom_site_fract_x
  _atom_site_fract_y
  _atom_site_fract_z
  _atom_site_occupancy
  Mg  Mg1       1.0  0.48380332263778625  0.6221119224547134  0.768446368585076  1.0000
  Mg  Mg2       1.0  0.8932433481921207  0.14731425328217435  0.1671136652222781  1.0000
  C   C1        1.0  0.4600372468136553  0.666904732322656  0.33596723238112  1.0000
  C   C2        1.0  0.2706708032648225  0.7724958382487664  0.269728300505523  1.0000
  C   C3        1.0  0.7864736436948366  0.9232136040606129  0.7093610805234533  1.0000
  C   C4        1.0  0.27268857262977897  0.7021825820927531  0.11116394128693449  1.0000
  C   C5        1.0  0.5727783679317406  0.45656440486234334  0.4287676150910317  1.0000
  C   C6        1.0  0.7013166778717488  0.781988572418139  0.4960695306211874  1.0000
  C   C7        1.0  0.09163352740358555  0.1399797386075562  0.8177412246581311  1.0000
  C   C8        1.0  0.0945200936253414  0.38911864420215425  0.12692234230887878  1.0000
  O   O1        1.0  0.6039226923716814  0.44148766470015066  0.599594125153163  1.0000
  O   O2        1.0  0.6646207994658879  0.9012286968452359  0.3323842875525891  1.0000
  O   O3        1.0  0.27677947845218887  0.055570269108085935  0.6969186230488692  1.0000
  O   O4        1.0  0.08468063960214135  0.3726537227480971  0.30396084724713623  1.0000
  O   O5        1.0  0.6071568106026924  0.28862045226178373  0.40151172006752417  1.0000
  O   O6        1.0  0.45037697977099506  0.5416823724998732  0.07470915156590699  1.0000
  O   O7        1.0  0.8982112914205114  0.2912355429154045  0.8607132768075497  1.0000
  O   O8        1.0  0.1491594626793872  0.3335920529450416  0.9606476555729627  1.0000
  O   O9        1.0  0.9677378909353923  0.8319060027957474  0.715249603458949  1.0000
  O   O10       1.0  0.1365668595172285  0.7756921391145105  0.007140959489924631  1.0000
  O   O11       1.0  0.15743300706094882  0.9818516006119384  0.25422393656031217  1.0000
  O   O12       1.0  0.757995393651616  0.6710866621036885  0.6562069752455091  1.0000
data_image40
_chemical_formula_structural       Mg2C8O12
_chemical_formula_sum              "Mg2 C8 O12"
_cell_length_a       7.872530813609877
_cell_length_b       7.872530813609877
_cell_length_c       7.368803275525341
_cell_angle_alpha    62.34925540174321
_cell_angle_beta     62.34925540174321
_cell_angle_gamma    54.72736521231912

_space_group_name_H-M_alt    "P 1"
_space_group_IT_number       1

loop_
  _space_group_symop_operation_xyz
  'x, y, z'

loop_
  _atom_site_type_symbol
  _atom_site_label
  _atom_site_symmetry_multiplicity
  _atom_site_fract_x
  _atom_site_fract_y
  _atom_site_fract_z
  _atom_site_occupancy
  Mg  Mg1       1.0  0.4858765454128618  0.7096043520738919  0.7456331201521803  1.0000
  Mg  Mg2       1.0  0.8099140125402725  0.21100389811713297  0.17066758677110627  1.0000
  C   C1        1.0  0.44294276998697074  0.6688731111414565  0.3893457461122551  1.0000
  C   C2        1.0  0.29366129198954555  0.7542905252868645  0.2701458241930231  1.0000
  C   C3        1.0  0.9339579817972044  0.8078872488831145  0.7761739611378361  1.0000
  C   C4        1.0  0.4047643706541948  0.6078446592663947  0.11040063492922998  1.0000
  C   C5        1.0  0.4925784362376514  0.4594452521966108  0.5479685636479514  1.0000
  C   C6        1.0  0.6967803039596876  0.9215175643300444  0.36292589974688094  1.0000
  C   C7        1.0  0.10836913168434359  0.05178319375736713  0.7971595809304878  1.0000
  C   C8        1.0  0.08939786749290021  0.3434359685300877  0.13221050846971827  1.0000
  O   O1        1.0  0.4179963283499927  0.5123094050638002  0.7219295515579136  1.0000
  O   O2        1.0  0.7193930900131222  0.0020504382343322636  0.16738209847495178  1.0000
  O   O3        1.0  0.3088365502181609  0.012809353673162799  0.7552609808627125  1.0000
  O   O4        1.0  0.20924693736556743  0.24122581784928615  0.25006250517796524  1.0000
  O   O5        1.0  0.5863644417486481  0.27250082439940904  0.5395956629885602  1.0000
  O   O6        1.0  0.581588694008012  0.41576657865231925  0.06456567333786849  1.0000
  O   O7        1.0  0.9251314730416194  0.17247227110661797  0.8041661502173922  1.0000
  O   O8        1.0  0.9742942770411812  0.44673390346672104  0.017167757557839725  1.0000
  O   O9        1.0  0.9385046171513353  0.9733019105036246  0.6659134789500293  1.0000
  O   O10       1.0  0.24873865993252367  0.7124496223421688  0.04040379696730434  1.0000
  O   O11       1.0  0.08575861391888508  0.8939109024222911  0.2877777709086989  1.0000
  O   O12       1.0  0.7213774815973166  0.7658663404813977  0.510339605490712  1.0000
data_image41
_chemical_formula_structural       Mg2C8O12
_chemical_formula_sum              "Mg2 C8 O12"
_cell_length_a       7.872530813609877
_cell_length_b       7.872530813609877
_cell_length_c       7.368803275525341
_cell_angle_alpha    62.34925540174321
_cell_angle_beta     62.34925540174321
_cell_angle_gamma    54.72736521231912

_space_group_name_H-M_alt    "P 1"
_space_group_IT_number       1

loop_
  _space_group_symop_operation_xyz
  'x, y, z'

loop_
  _atom_site_type_symbol
  _atom_site_label
  _atom_site_symmetry_multiplicity
  _atom_site_fract_x
  _atom_site_fract_y
  _atom_site_fract_z
  _atom_site_occupancy
  Mg  Mg1       1.0  0.4181979260113228  0.6725633312862667  0.7406680139591705  1.0000
  Mg  Mg2       1.0  0.8493250637405293  0.13582668675278353  0.3003664524558648  1.0000
  C   C1        1.0  0.3293709855827059  0.6301712655608714  0.506954862226021  1.0000
  C   C2        1.0  0.28487486369175763  0.7607376918878311  0.3011216321054529  1.0000
  C   C3        1.0  0.9020964847879837  0.8334964122581914  0.75113099100427  1.0000
  C   C4        1.0  0.3304195675560757  0.6929724277741934  0.11545230738750842  1.0000
  C   C5        1.0  0.45747571519895824  0.4209944094881346  0.5954132556962358  1.0000
  C   C6        1.0  0.7473698373987008  0.8690097780199871  0.3040429390216254  1.0000
  C   C7        1.0  0.22329787023807013  0.1567665676578175  0.6625112286078471  1.0000
  C   C8        1.0  0.15580537951129905  0.327020460201283  0.08290333145808382  1.0000
  O   O1        1.0  0.5312590742683301  0.340067980369916  0.767602345022235  1.0000
  O   O2        1.0  0.7353026237800036  0.03726529530591072  0.1854090312678831  1.0000
  O   O3        1.0  0.36585810210658565  0.9825051174433678  0.64027879484846  1.0000
  O   O4        1.0  0.3243140276936177  0.21987365024284547  0.10785661415457581  1.0000
  O   O5        1.0  0.5453273604996436  0.2948072935955078  0.48186808121586  1.0000
  O   O6        1.0  0.49836160284581943  0.6828062086749794  0.9569068820183069  1.0000
  O   O7        1.0  0.05682120203311384  0.3105416758680286  0.7204515944707629  1.0000
  O   O8        1.0  0.9710069066021093  0.4519500194793884  0.039864765085709575  1.0000
  O   O9        1.0  0.7325179266984632  0.8864480752119378  0.8700829569959625  1.0000
  O   O10       1.0  0.1991847054664686  0.6404380983628561  0.15851649971358087  1.0000
  O   O11       1.0  0.11853443576175797  0.9553553294440222  0.3245932644533215  1.0000
  O   O12       1.0  0.7057480455058538  0.7331379865147442  0.4296894449479781  1.0000
data_image42
_chemical_formula_structural       Mg2C8O12
_chemical_formula_sum              "Mg2 C8 O12"
_cell_length_a       7.872530813609877
_cell_length_b       7.872530813609877
_cell_length_c       7.368803275525341
_cell_angle_alpha    62.34925540174321
_cell_angle_beta     62.34925540174321
_cell_angle_gamma    54.72736521231912

_space_group_name_H-M_alt    "P 1"
_space_group_IT_number       1

loop_
  _space_group_symop_operation_xyz
  'x, y, z'

loop_
  _atom_site_type_symbol
  _atom_site_label
  _atom_site_symmetry_multiplicity
  _atom_site_fract_x
  _atom_site_fract_y
  _atom_site_fract_z
  _atom_site_occupancy
  Mg  Mg1       1.0  0.4287233517509093  0.6183979117787348  0.7537038423670754  1.0000
  Mg  Mg2       1.0  0.8784380074243083  0.16577919859847587  0.3198875376939332  1.0000
  C   C1        1.0  0.32822721368084656  0.5867825423807971  0.5367554367491703  1.0000
  C   C2        1.0  0.27502934758477066  0.7325883961848203  0.346129861512461  1.0000
  C   C3        1.0  0.636926003304616  0.8958748010722417  0.7312501306791721  1.0000
  C   C4        1.0  0.3328420695054277  0.6526729441966993  0.16444668089417938  1.0000
  C   C5        1.0  0.5519719968180987  0.43395321533498  0.5255242844301843  1.0000
  C   C6        1.0  0.7884124309143734  0.8810990061428784  0.2845928603598319  1.0000
  C   C7        1.0  0.0971165808883494  0.16016294887342603  0.6678041032686228  1.0000
  C   C8        1.0  0.18046040261432073  0.38718816620384344  0.11933510632702249  1.0000
  O   O1        1.0  0.6378747572706862  0.34658254563989727  0.6770282386480376  1.0000
  O   O2        1.0  0.8561066249199736  0.016987910748319512  0.1572458430896  1.0000
  O   O3        1.0  0.16483147748444327  0.016855525133534742  0.6059136935712244  1.0000
  O   O4        1.0  0.3801956700024086  0.3643059555792091  0.9917225807506211  1.0000
  O   O5        1.0  0.5824614821222946  0.2876389391387441  0.4637194501352595  1.0000
  O   O6        1.0  0.49485979747609127  0.609270959211243  0.9994031225069862  1.0000
  O   O7        1.0  0.07434098228628754  0.28308859465664954  0.7307362775350541  1.0000
  O   O8        1.0  0.021298145718054117  0.38505728433268627  0.1822297942470248  1.0000
  O   O9        1.0  0.6857597529098304  0.866145837939069  0.8724907698474964  1.0000
  O   O10       1.0  0.14913166496838698  0.6913207441222972  0.159498850964779  1.0000
  O   O11       1.0  0.11424734735500694  0.9336246696755193  0.3501026545876148  1.0000
  O   O12       1.0  0.7444834272523535  0.7409130165532628  0.40283813796836315  1.0000
data_image43
_chemical_formula_structural       Mg2C8O12
_chemical_formula_sum              "Mg2 C8 O12"
_cell_length_a       7.872530813609877
_cell_length_b       7.872530813609877
_cell_length_c       7.368803275525341
_cell_angle_alpha    62.34925540174321
_cell_angle_beta     62.34925540174321
_cell_angle_gamma    54.72736521231912

_space_group_name_H-M_alt    "P 1"
_space_group_IT_number       1

loop_
  _space_group_symop_operation_xyz
  'x, y, z'

loop_
  _atom_site_type_symbol
  _atom_site_label
  _atom_site_symmetry_multiplicity
  _atom_site_fract_x
  _atom_site_fract_y
  _atom_site_fract_z
  _atom_site_occupancy
  Mg  Mg1       1.0  0.49471039627603575  0.5640922750482029  0.8105950674848383  1.0000
  Mg  Mg2       1.0  0.8569326817716184  0.20470871570833327  0.3354171948952868  1.0000
  C   C1        1.0  0.37403401283065185  0.6336598078578701  0.5102300864278622  1.0000
  C   C2        1.0  0.24849745006465407  0.7533738152370427  0.37018132089607664  1.0000
  C   C3        1.0  0.6190473071363782  0.9068074616967485  0.7187858604291082  1.0000
  C   C4        1.0  0.28270812801838224  0.6490998031818339  0.228211862354765  1.0000
  C   C5        1.0  0.5566755985120135  0.4331728650312318  0.4776858324798859  1.0000
  C   C6        1.0  0.6967282581888281  0.015145123823282702  0.20248209648821336  1.0000
  C   C7        1.0  0.07134228501175865  0.0955099227499885  0.8152125204987899  1.0000
  C   C8        1.0  0.26525447975240013  0.336495432305523  0.05883216968749627  1.0000
  O   O1        1.0  0.7336630816980502  0.45244922244068175  0.4184564660219137  1.0000
  O   O2        1.0  0.7009985910732055  0.1820052628234896  0.1024731229424457  1.0000
  O   O3        1.0  0.2010424472339727  0.9136892228670777  0.7962907042318563  1.0000
  O   O4        1.0  0.4282512947058206  0.3143110723310137  0.8961909855994229  1.0000
  O   O5        1.0  0.5901157973018317  0.22625326403477913  0.5033904142303294  1.0000
  O   O6        1.0  0.466597714200005  0.5776980162739631  0.07626638570800516  1.0000
  O   O7        1.0  0.9887540541404868  0.2831939669521356  0.7575245062263904  1.0000
  O   O8        1.0  0.16510332232476504  0.2509913275226092  0.2018567762537491  1.0000
  O   O9        1.0  0.775948997556904  0.851208293368161  0.7547623250146711  1.0000
  O   O10       1.0  0.14523399360048853  0.6308992977873273  0.21360391891252062  1.0000
  O   O11       1.0  0.0714784226840992  0.9122705342596112  0.4093133942897432  1.0000
  O   O12       1.0  0.6293592096974321  0.9003993785005867  0.34789007514854836  1.0000
data_image44
_chemical_formula_structural       Mg2C8O12
_chemical_formula_sum              "Mg2 C8 O12"
_cell_length_a       7.872530813609877
_cell_length_b       7.872530813609877
_cell_length_c       7.368803275525341
_cell_angle_alpha    62.34925540174321
_cell_angle_beta     62.34925540174321
_cell_angle_gamma    54.72736521231912

_space_group_name_H-M_alt    "P 1"
_space_group_IT_number       1

loop_
  _space_group_symop_operation_xyz
  'x, y, z'

loop_
  _atom_site_type_symbol
  _atom_site_label
  _atom_site_symmetry_multiplicity
  _atom_site_fract_x
  _atom_site_fract_y
  _atom_site_fract_z
  _atom_site_occupancy
  Mg  Mg1       1.0  0.43118929378304127  0.7314757622933707  0.7225653608112893  1.0000
  Mg  Mg2       1.0  0.8665385052679554  0.20438339266509178  0.2074572494222386  1.0000
  C   C1        1.0  0.36828679246339335  0.6398113776213998  0.5327853130515613  1.0000
  C   C2        1.0  0.259905760396108  0.6904838529331647  0.39203285356764095  1.0000
  C   C3        1.0  0.6948553564591593  0.8532685300627654  0.6579069959137769  1.0000
  C   C4        1.0  0.3595328760102629  0.562092769181233  0.23238130402191318  1.0000
  C   C5        1.0  0.6165324480962984  0.45825727612860184  0.5124816181849434  1.0000
  C   C6        1.0  0.6569979754590927  0.9323011203478702  0.27479204123560175  1.0000
  C   C7        1.0  0.05138181309062362  0.1849926269976031  0.7671629989188682  1.0000
  C   C8        1.0  0.2856844505227896  0.27689560078622694  0.024808936741054888  1.0000
  O   O1        1.0  0.7290497000281893  0.4770501704437525  0.5685818555413301  1.0000
  O   O2        1.0  0.7482070714979134  0.9949300792760171  0.2963366490975423  1.0000
  O   O3        1.0  0.16474582680446326  0.9874070593234103  0.8103970910169882  1.0000
  O   O4        1.0  0.4388801914010951  0.30581820947921673  0.939546967508754  1.0000
  O   O5        1.0  0.6401841671119849  0.35691681088274435  0.4173288189937238  1.0000
  O   O6        1.0  0.502122601046278  0.5993352087932117  0.03791881794587362  1.0000
  O   O7        1.0  0.9408975828080476  0.3112773934456933  0.8853497545460501  1.0000
  O   O8        1.0  0.14891434904641734  0.21950680165159708  0.10159897025308484  1.0000
  O   O9        1.0  0.6204108376759325  0.9327948793678699  0.801037790753075  1.0000
  O   O10       1.0  0.28419538252404203  0.45586481690146474  0.2573485578077146  1.0000
  O   O11       1.0  0.10127361505065538  0.8665915203119727  0.4065221841704904  1.0000
  O   O12       1.0  0.5254178282716573  0.9050029540594865  0.2727962496867157  1.0000
data_image45
_chemical_formula_structural       Mg2C8O12
_chemical_formula_sum              "Mg2 C8 O12"
_cell_length_a       7.872530813609877
_cell_length_b       7.872530813609877
_cell_length_c       7.368803275525341
_cell_angle_alpha    62.34925540174321
_cell_angle_beta     62.34925540174321
_cell_angle_gamma    54.72736521231912

_space_group_name_H-M_alt    "P 1"
_space_group_IT_number       1

loop_
  _space_group_symop_operation_xyz
  'x, y, z'

loop_
  _atom_site_type_symbol
  _atom_site_label
  _atom_site_symmetry_multiplicity
  _atom_site_fract_x
  _atom_site_fract_y
  _atom_site_fract_z
  _atom_site_occupancy
  Mg  Mg1       1.0  0.43191690808169114  0.7556548233744804  0.6595567262078492  1.0000
  Mg  Mg2       1.0  0.9424799279787672  0.1744436693749131  0.24406687947644365  1.0000
  C   C1        1.0  0.40621443917742794  0.7061118128857451  0.42593528970758704  1.0000
  C   C2        1.0  0.2509862959395696  0.7221943103136306  0.3837333547633303  1.0000
  C   C3        1.0  0.828006123709274  0.7091161705811665  0.7313203123217923  1.0000
  C   C4        1.0  0.253704625037892  0.5746283772982386  0.27960138316905847  1.0000
  C   C5        1.0  0.609037033706272  0.4923141493856976  0.44970245673502796  1.0000
  C   C6        1.0  0.6483354787612763  0.9692329254876565  0.2126912678019619  1.0000
  C   C7        1.0  0.9866041259108063  0.24231710190274197  0.811461566339493  1.0000
  C   C8        1.0  0.3456778480822927  0.2766064912222621  0.02698111381307422  1.0000
  O   O1        1.0  0.7436034516167367  0.4938126400860863  0.5041628662276169  1.0000
  O   O2        1.0  0.6268160819346034  0.9713766329418416  0.3830245852862624  1.0000
  O   O3        1.0  0.15544849545877826  0.09784642359710896  0.7544936446422533  1.0000
  O   O4        1.0  0.4785616180141248  0.31412725121067847  0.9869745004787979  1.0000
  O   O5        1.0  0.6380107365321465  0.3007792909817347  0.462685501288051  1.0000
  O   O6        1.0  0.32286074183557073  0.6516338636371677  0.09798215605922385  1.0000
  O   O7        1.0  0.8807694894291143  0.2698456256487538  0.9878867359637624  1.0000
  O   O8        1.0  0.2166573595666141  0.20914336171043613  0.11254699460309547  1.0000
  O   O9        1.0  0.6603064581371485  0.8589505568711551  0.7699966216015797  1.0000
  O   O10       1.0  0.2202919420994873  0.4120452739790972  0.37124121486593387  1.0000
  O   O11       1.0  0.06373238476477028  0.8836772966440655  0.3635841724411849  1.0000
  O   O12       1.0  0.6950070396730887  0.8873367104288737  0.09578392383863521  1.0000
data_image46
_chemical_formula_structural       Mg2C8O12
_chemical_formula_sum              "Mg2 C8 O12"
_cell_length_a       7.872530813609877
_cell_length_b       7.872530813609877
_cell_length_c       7.368803275525341
_cell_angle_alpha    62.34925540174321
_cell_angle_beta     62.34925540174321
_cell_angle_gamma    54.72736521231912

_space_group_name_H-M_alt    "P 1"
_space_group_IT_number       1

loop_
  _space_group_symop_operation_xyz
  'x, y, z'

loop_
  _atom_site_type_symbol
  _atom_site_label
  _atom_site_symmetry_multiplicity
  _atom_site_fract_x
  _atom_site_fract_y
  _atom_site_fract_z
  _atom_site_occupancy
  Mg  Mg1       1.0  0.4542069698774929  0.7760934721535415  0.6861433584859304  1.0000
  Mg  Mg2       1.0  0.9343132603257169  0.22892699750725032  0.338197315841939  1.0000
  C   C1        1.0  0.3198609509993131  0.6495201244562422  0.510888783106316  1.0000
  C   C2        1.0  0.18289409802078277  0.7524374855733832  0.39194031523128053  1.0000
  C   C3        1.0  0.859257056311578  0.6154814748000963  0.9008022777239639  1.0000
  C   C4        1.0  0.20129638809628123  0.6634994729305707  0.25598904786397425  1.0000
  C   C5        1.0  0.5329907068841524  0.46299313609355675  0.41486330202586386  1.0000
  C   C6        1.0  0.6708957863780067  0.95426014180271  0.23898960434427563  1.0000
  C   C7        1.0  0.0608146988552587  0.18988283465300965  0.8386919541562171  1.0000
  C   C8        1.0  0.38156628802620973  0.25106916802713986  0.9722010534413402  1.0000
  O   O1        1.0  0.6530406427641415  0.48995529921383185  0.45385256810756236  1.0000
  O   O2        1.0  0.5751865708901904  0.9761258604467575  0.420346821311094  1.0000
  O   O3        1.0  0.19703570682018912  0.15350071293407447  0.6883272065048901  1.0000
  O   O4        1.0  0.528615941759121  0.2757219842536337  0.8525500597591267  1.0000
  O   O5        1.0  0.56825652889924  0.321300831815693  0.34399053585354367  1.0000
  O   O6        1.0  0.35701666752380073  0.6461573905996649  0.06879490635299933  1.0000
  O   O7        1.0  0.9474335063490381  0.18113011617829555  0.020180260880292122  1.0000
  O   O8        1.0  0.23895044690471806  0.22784643128457338  0.10399222297027788  1.0000
  O   O9        1.0  0.768211788220495  0.6394196362746782  0.7979794378285064  1.0000
  O   O10       1.0  0.12774480737944727  0.5347320937202815  0.3262716420130816  1.0000
  O   O11       1.0  0.014004789719924809  0.9537411466665153  0.4205480123171041  1.0000
  O   O12       1.0  0.7934468387586628  0.9526369268897245  0.060248792402716675  1.0000
data_image47
_chemical_formula_structural       Mg2C8O12
_chemical_formula_sum              "Mg2 C8 O12"
_cell_length_a       7.872530813609877
_cell_length_b       7.872530813609877
_cell_length_c       7.368803275525341
_cell_angle_alpha    62.34925540174321
_cell_angle_beta     62.34925540174321
_cell_angle_gamma    54.72736521231912

_space_group_name_H-M_alt    "P 1"
_space_group_IT_number       1

loop_
  _space_group_symop_operation_xyz
  'x, y, z'

loop_
  _atom_site_type_symbol
  _atom_site_label
  _atom_site_symmetry_multiplicity
  _atom_site_fract_x
  _atom_site_fract_y
  _atom_site_fract_z
  _atom_site_occupancy
  Mg  Mg1       1.0  0.3609601803114474  0.7206125732572637  0.7115587280592615  1.0000
  Mg  Mg2       1.0  0.9381458243726033  0.23313940446086048  0.28682344703598794  1.0000
  C   C1        1.0  0.3965798480966353  0.69412429700866  0.4071156022155793  1.0000
  C   C2        1.0  0.2007323773419663  0.8016087612441457  0.3378096500895137  1.0000
  C   C3        1.0  0.7015909581255081  0.5851193669738587  0.04699959401753406  1.0000
  C   C4        1.0  0.20149969423832004  0.7660739497819542  0.1508884606635218  1.0000
  C   C5        1.0  0.5631538803767997  0.49565645877579184  0.48401018471785967  1.0000
  C   C6        1.0  0.6759637077013929  0.9754988676635055  0.21541617932371027  1.0000
  C   C7        1.0  0.13948574670932512  0.09492643886529005  0.7810020170782991  1.0000
  C   C8        1.0  0.29975336806520947  0.2445742291076815  0.07368669435633657  1.0000
  O   O1        1.0  0.6292825481325224  0.49791714973431295  0.6233433343306127  1.0000
  O   O2        1.0  0.7041545405939764  0.8031521597252124  0.34657808848789806  1.0000
  O   O3        1.0  0.21636575558801496  0.03903697022983316  0.6234017303511185  1.0000
  O   O4        1.0  0.35382251968700673  0.29251894095373027  0.8917743894855401  1.0000
  O   O5        1.0  0.6634047500363601  0.2889397080007013  0.454127658493965  1.0000
  O   O6        1.0  0.366513013438979  0.7641897404876633  0.9715704235921215  1.0000
  O   O7        1.0  0.16870968212597726  0.16994258721368688  0.868641777992608  1.0000
  O   O8        1.0  0.23184225373729  0.18071648790153438  0.26919241543638384  1.0000
  O   O9        1.0  0.7639580674636504  0.5553402770902066  0.8915751421889708  1.0000
  O   O10       1.0  0.09710418133566902  0.7181837552288974  0.09987187196951568  1.0000
  O   O11       1.0  0.04717425809853258  0.8920972529329924  0.48871555593257876  1.0000
  O   O12       1.0  0.6850087478831455  0.1408602086035257  0.08638339989533413  1.0000
data_image48
_chemical_formula_structural       Mg2C8O12
_chemical_formula_sum              "Mg2 C8 O12"
_cell_length_a       7.872530813609877
_cell_length_b       7.872530813609877
_cell_length_c       7.368803275525341
_cell_angle_alpha    62.34925540174321
_cell_angle_beta     62.34925540174321
_cell_angle_gamma    54.72736521231912

_space_group_name_H-M_alt    "P 1"
_space_group_IT_number       1

loop_
  _space_group_symop_operation_xyz
  'x, y, z'

loop_
  _atom_site_type_symbol
  _atom_site_label
  _atom_site_symmetry_multiplicity
  _atom_site_fract_x
  _atom_site_fract_y
  _atom_site_fract_z
  _atom_site_occupancy
  Mg  Mg1       1.0  0.3613432014267658  0.6769502140294181  0.720494038489099  1.0000
  Mg  Mg2       1.0  0.9879687446585516  0.15115806364039874  0.24281276464913157  1.0000
  C   C1        1.0  0.40981056035559726  0.6017915147012781  0.44057055496956393  1.0000
  C   C2        1.0  0.2300719655376182  0.720403274218848  0.3536659843674312  1.0000
  C   C3        1.0  0.7911676963856499  0.7131914205014728  0.9375400744445547  1.0000
  C   C4        1.0  0.27299628964748895  0.6583015047907318  0.15196894245709253  1.0000
  C   C5        1.0  0.6206427545081468  0.47592079790905323  0.4179153206158834  1.0000
  C   C6        1.0  0.7080191768495934  0.9915336254037436  0.24890006038799062  1.0000
  C   C7        1.0  0.9931684126178228  0.11275075002656754  0.8987585972781694  1.0000
  C   C8        1.0  0.23950009665517505  0.3645558973459178  0.051224821247287444  1.0000
  O   O1        1.0  0.6904831094309761  0.4864803937259286  0.54949606727891  1.0000
  O   O2        1.0  0.7260993330225503  0.8678279670791507  0.40283887852909117  1.0000
  O   O3        1.0  0.050120913517289756  0.9955859488315754  0.8055171389123442  1.0000
  O   O4        1.0  0.34893240837076667  0.36659611683598  0.8624348489105527  1.0000
  O   O5        1.0  0.7198152939711501  0.3634374557191725  0.30433880700947513  1.0000
  O   O6        1.0  0.3369903542741515  0.7886524561653423  0.9849508880361788  1.0000
  O   O7        1.0  0.026166636813554422  0.2176659876076194  0.9564288370233015  1.0000
  O   O8        1.0  0.19402106897195465  0.23193608485768058  0.20357870992842253  1.0000
  O   O9        1.0  0.7332162788857216  0.6492426201996775  0.8908277039915553  1.0000
  O   O10       1.0  0.18185691574909812  0.5689039207479936  0.15102060930331426  1.0000
  O   O11       1.0  0.05760548123832448  0.8694059082115835  0.4546654921073286  1.0000
  O   O12       1.0  0.720165153827854  0.14140832857859303  0.10248857216923546  1.0000
data_image49
_chemical_formula_structural       Mg2C8O12
_chemical_formula_sum              "Mg2 C8 O12"
_cell_length_a       7.872530813609877
_cell_length_b       7.872530813609877
_cell_length_c       7.368803275525341
_cell_angle_alpha    62.34925540174321
_cell_angle_beta     62.34925540174321
_cell_angle_gamma    54.72736521231912

_space_group_name_H-M_alt    "P 1"
_space_group_IT_number       1

loop_
  _space_group_symop_operation_xyz
  'x, y, z'

loop_
  _atom_site_type_symbol
  _atom_site_label
  _atom_site_symmetry_multiplicity
  _atom_site_fract_x
  _atom_site_fract_y
  _atom_site_fract_z
  _atom_site_occupancy
  Mg  Mg1       1.0  0.3952049713493715  0.6403252534131378  0.7843484971212957  1.0000
  Mg  Mg2       1.0  0.9641832330426064  0.20438099163509466  0.1651401864972402  1.0000
  C   C1        1.0  0.3710840065559539  0.7303700084324231  0.4344314603559103  1.0000
  C   C2        1.0  0.2511676095545251  0.7791957726017396  0.32484073676042846  1.0000
  C   C3        1.0  0.865264841304927  0.6225337271307234  0.7652702680138921  1.0000
  C   C4        1.0  0.3278463665743528  0.6367515986971248  0.20155593617208178  1.0000
  C   C5        1.0  0.5634203115963499  0.5131777874328944  0.46554115568030313  1.0000
  C   C6        1.0  0.6864735631456986  0.9904461322828341  0.2573293944206454  1.0000
  C   C7        1.0  0.025307703526125103  0.06689117649938277  0.7666944688564917  1.0000
  C   C8        1.0  0.21375602377360534  0.3538551317998395  0.17932714731745314  1.0000
  O   O1        1.0  0.635162788357885  0.45891504081265605  0.6229532844354732  1.0000
  O   O2        1.0  0.6266402909926283  0.8875668894348571  0.4098211084489086  1.0000
  O   O3        1.0  0.06597714401185306  0.9256060655260429  0.7070055421835331  1.0000
  O   O4        1.0  0.32336496051148184  0.3884087908895264  0.997998945161863  1.0000
  O   O5        1.0  0.64180973780109  0.4113558068623782  0.32953132391371887  1.0000
  O   O6        1.0  0.43028732643623024  0.6713138500612928  0.013552177402830769  1.0000
  O   O7        1.0  0.0674953881558593  0.14451440998499676  0.827726773248074  1.0000
  O   O8        1.0  0.1220309104175611  0.24914959086890454  0.33557286845007983  1.0000
  O   O9        1.0  0.7865474615513927  0.7921380011266238  0.7904783050646155  1.0000
  O   O10       1.0  0.23931138508399397  0.5077667550362998  0.29720869610566947  1.0000
  O   O11       1.0  0.04651220548646895  0.9444835809118838  0.3427740398339903  1.0000
  O   O12       1.0  0.7578865108670798  0.09845946776581767  0.09386258474007533  1.0000
data_image50
_chemical_formula_structural       Mg2C8O12
_chemical_formula_sum              "Mg2 C8 O12"
_cell_length_a       7.872530813609877
_cell_length_b       7.872530813609877
_cell_length_c       7.368803275525341
_cell_angle_alpha    62.34925540174321
_cell_angle_beta     62.34925540174321
_cell_angle_gamma    54.72736521231912

_space_group_name_H-M_alt    "P 1"
_space_group_IT_number       1

loop_
  _space_group_symop_operation_xyz
  'x, y, z'

loop_
  _atom_site_type_symbol
  _atom_site_label
  _atom_site_symmetry_multiplicity
  _atom_site_fract_x
  _atom_site_fract_y
  _atom_site_fract_z
  _atom_site_occupancy
  Mg  Mg1       1.0  0.3649441729905301  0.6329698260530985  0.7584525009366491  1.0000
  Mg  Mg2       1.0  0.024084424504810846  0.18420211965672012  0.1880501339114062  1.0000
  C   C1        1.0  0.3785898749042947  0.548996909776585  0.4777157952335615  1.0000
  C   C2        1.0  0.30121254285134086  0.7157554740799146  0.3166834877582585  1.0000
  C   C3        1.0  0.8255702863396432  0.718823093947311  0.5609731522474598  1.0000
  C   C4        1.0  0.3135518356554194  0.6125040954821723  0.18400692973420543  1.0000
  C   C5        1.0  0.5977949714968209  0.41700129897682175  0.47636906145385105  1.0000
  C   C6        1.0  0.5843767439414747  0.12534987512196816  0.28396221556652324  1.0000
  C   C7        1.0  0.15229005973654597  0.05812501609918237  0.8216679612288805  1.0000
  C   C8        1.0  0.18006907853431273  0.3782034573182888  0.19962626247653237  1.0000
  O   O1        1.0  0.6534450956085045  0.40852226704860944  0.6273597060445901  1.0000
  O   O2        1.0  0.44461755274097015  0.08229345819103107  0.3416906611781556  1.0000
  O   O3        1.0  0.11877906578578834  0.9151958028385357  0.842036369618364  1.0000
  O   O4        1.0  0.2776933847777587  0.38008465314573625  0.0012947356083499173  1.0000
  O   O5        1.0  0.716462306006065  0.4201789727886409  0.28121983715564597  1.0000
  O   O6        1.0  0.4256728497681063  0.6029457495042081  0.008151435405301256  1.0000
  O   O7        1.0  0.11836382952436957  0.21473384573091436  0.8456820866507248  1.0000
  O   O8        1.0  0.03911304292740139  0.3465303956370014  0.3297681584708374  1.0000
  O   O9        1.0  0.8323628308539949  0.6420812279415677  0.7397532046465118  1.0000
  O   O10       1.0  0.16384331249117617  0.5471275726605912  0.2771078592738109  1.0000
  O   O11       1.0  0.14514244877664179  0.9052849802693894  0.3342283239043649  1.0000
  O   O12       1.0  0.7408187105067514  0.1457896398676671  0.19919444600205763  1.0000
data_image51
_chemical_formula_structural       Mg2C8O12
_chemical_formula_sum              "Mg2 C8 O12"
_cell_length_a       7.872530813609877
_cell_length_b       7.872530813609877
_cell_length_c       7.368803275525341
_cell_angle_alpha    62.34925540174321
_cell_angle_beta     62.34925540174321
_cell_angle_gamma    54.72736521231912

_space_group_name_H-M_alt    "P 1"
_space_group_IT_number       1

loop_
  _space_group_symop_operation_xyz
  'x, y, z'

loop_
  _atom_site_type_symbol
  _atom_site_label
  _atom_site_symmetry_multiplicity
  _atom_site_fract_x
  _atom_site_fract_y
  _atom_site_fract_z
  _atom_site_occupancy
  Mg  Mg1       1.0  0.4545473187892444  0.44746921428116637  0.8403634897196729  1.0000
  Mg  Mg2       1.0  0.03085754224901953  0.25295035856139975  0.14850275378902056  1.0000
  C   C1        1.0  0.4270018271931584  0.5757051563472516  0.47899825480872377  1.0000
  C   C2        1.0  0.3459166455236508  0.719203498962336  0.3098209477466754  1.0000
  C   C3        1.0  0.8461148227239731  0.9604464593361903  0.4716905288055762  1.0000
  C   C4        1.0  0.31266582389629216  0.6672079359319886  0.16228292318026116  1.0000
  C   C5        1.0  0.5953517742102749  0.34624710065439374  0.48936357102325767  1.0000
  C   C6        1.0  0.5552112603666859  0.011121002390417134  0.28409465376646803  1.0000
  C   C7        1.0  0.11276880307854675  0.09465616404650652  0.8032396467641997  1.0000
  C   C8        1.0  0.08388505519602804  0.49427754998905454  0.24349466849259183  1.0000
  O   O1        1.0  0.6169481346289865  0.18423474010710594  0.691611565639036  1.0000
  O   O2        1.0  0.5361589105192635  0.9583906046511994  0.4695256262385583  1.0000
  O   O3        1.0  0.13085754043237574  0.9632706666624359  0.7547769413240116  1.0000
  O   O4        1.0  0.18635042594852724  0.4435654242378034  0.07091627202895423  1.0000
  O   O5        1.0  0.738261684524258  0.31214272133819393  0.32715662926651173  1.0000
  O   O6        1.0  0.42449651132528265  0.6846710466886748  0.9777855049962041  1.0000
  O   O7        1.0  0.09474498544980699  0.1847410334754485  0.9109498641638233  1.0000
  O   O8        1.0  0.009095225307648235  0.38670083726004956  0.4012494704213463  1.0000
  O   O9        1.0  0.8111269474182925  0.8374819961521424  0.633485568312776  1.0000
  O   O10       1.0  0.1238082109205798  0.6475964635244857  0.22632013471930182  1.0000
  O   O11       1.0  0.3152771691168643  0.9117336729575778  0.262796900554904  1.0000
  O   O12       1.0  0.5859833752401815  0.050668017521706306  0.09619428152002886  1.0000
data_image52
_chemical_formula_structural       Mg2C8O12
_chemical_formula_sum              "Mg2 C8 O12"
_cell_length_a       7.872530813609877
_cell_length_b       7.872530813609877
_cell_length_c       7.368803275525341
_cell_angle_alpha    62.34925540174321
_cell_angle_beta     62.34925540174321
_cell_angle_gamma    54.72736521231912

_space_group_name_H-M_alt    "P 1"
_space_group_IT_number       1

loop_
  _space_group_symop_operation_xyz
  'x, y, z'

loop_
  _atom_site_type_symbol
  _atom_site_label
  _atom_site_symmetry_multiplicity
  _atom_site_fract_x
  _atom_site_fract_y
  _atom_site_fract_z
  _atom_site_occupancy
  Mg  Mg1       1.0  0.46494013541764856  0.4595942794498328  0.8002645524805756  1.0000
  Mg  Mg2       1.0  0.005534888510366597  0.1592181450272188  0.3527774431380657  1.0000
  C   C1        1.0  0.41861977627688357  0.5767402870769235  0.4752122705068331  1.0000
  C   C2        1.0  0.3573705124682564  0.715847167259147  0.2822238318080771  1.0000
  C   C3        1.0  0.8481589622674575  0.902479255042306  0.5059378594722937  1.0000
  C   C4        1.0  0.316576994945141  0.6700176779681942  0.14542590942359782  1.0000
  C   C5        1.0  0.5906950734246543  0.37364113054672193  0.4526613132214334  1.0000
  C   C6        1.0  0.6878858627831415  0.9311664038946424  0.302586938064202  1.0000
  C   C7        1.0  0.013165021451206904  0.12524087955913302  0.8432390996877296  1.0000
  C   C8        1.0  0.08893615784998356  0.5492813996955117  0.17785921979403452  1.0000
  O   O1        1.0  0.5765060317598281  0.20097184135704835  0.6033438216884012  1.0000
  O   O2        1.0  0.6085492914085704  0.8221995299747499  0.4519517949642372  1.0000
  O   O3        1.0  0.9352452833126631  0.12682292186593097  0.7492975733787176  1.0000
  O   O4        1.0  0.1385726626235002  0.5037615979720953  0.01851535050237163  1.0000
  O   O5        1.0  0.7436967679406808  0.3614409915707708  0.27094369486515907  1.0000
  O   O6        1.0  0.4969056487595346  0.5507565089172101  0.004536307518062062  1.0000
  O   O7        1.0  0.02052039120168396  0.18396806409741423  0.9502584304777806  1.0000
  O   O8        1.0  0.03198291277020258  0.44076292222968894  0.36567385121520757  1.0000
  O   O9        1.0  0.9273047345952324  0.7880944650596292  0.6334351140490785  1.0000
  O   O10       1.0  0.12235791486084974  0.7236265493518338  0.19191781063322935  1.0000
  O   O11       1.0  0.2825155684349959  0.932695737106159  0.23993922480840896  1.0000
  O   O12       1.0  0.6804404137227549  0.06989255497289565  0.13761427188366407  1.0000
data_image53
_chemical_formula_structural       Mg2C8O12
_chemical_formula_sum              "Mg2 C8 O12"
_cell_length_a       7.872530813609877
_cell_length_b       7.872530813609877
_cell_length_c       7.368803275525341
_cell_angle_alpha    62.34925540174321
_cell_angle_beta     62.34925540174321
_cell_angle_gamma    54.72736521231912

_space_group_name_H-M_alt    "P 1"
_space_group_IT_number       1

loop_
  _space_group_symop_operation_xyz
  'x, y, z'

loop_
  _atom_site_type_symbol
  _atom_site_label
  _atom_site_symmetry_multiplicity
  _atom_site_fract_x
  _atom_site_fract_y
  _atom_site_fract_z
  _atom_site_occupancy
  Mg  Mg1       1.0  0.3671136865157916  0.6134191970663426  0.6847092665714007  1.0000
  Mg  Mg2       1.0  0.013626048957925248  0.1562748706108217  0.38054962556783195  1.0000
  C   C1        1.0  0.522535257427788  0.6229573315178253  0.33165968799318457  1.0000
  C   C2        1.0  0.3974106073264786  0.7797629830842842  0.1869168625667619  1.0000
  C   C3        1.0  0.0495592767633356  0.7161246734219426  0.7324214903138273  1.0000
  C   C4        1.0  0.3294097515827507  0.6856428615806411  0.0898643757504562  1.0000
  C   C5        1.0  0.5860998937831892  0.3982373852244286  0.40838442600789787  1.0000
  C   C6        1.0  0.5646398340203653  0.8995086527995158  0.449282733358239  1.0000
  C   C7        1.0  0.9279269128720448  0.18730491022936363  0.8385925861343466  1.0000
  C   C8        1.0  0.16161579175468355  0.4920693440448699  0.14071920324035125  1.0000
  O   O1        1.0  0.5431217674775801  0.3150562173152264  0.6096287158983469  1.0000
  O   O2        1.0  0.6475868272462151  0.7083100296952839  0.5544990095255335  1.0000
  O   O3        1.0  0.8536783810130206  0.14861596396206234  0.7559083223448444  1.0000
  O   O4        1.0  0.20278318544414348  0.5012202173738572  0.9643862206290063  1.0000
  O   O5        1.0  0.7720360143022682  0.30086387728075914  0.2814178923958584  1.0000
  O   O6        1.0  0.45038396656404983  0.6251693051443864  0.935987836490454  1.0000
  O   O7        1.0  0.031845552395041575  0.19682981348134496  0.9017464772246775  1.0000
  O   O8        1.0  0.09754122040632483  0.3561074406142779  0.287416284177747  1.0000
  O   O9        1.0  0.9505128595953  0.6613328153105664  0.7352843759606167  1.0000
  O   O10       1.0  0.13904310450802873  0.6432287220845276  0.2063670593828573  1.0000
  O   O11       1.0  0.30012976268825337  0.9926533768137433  0.18888799849081786  1.0000
  O   O12       1.0  0.549559297213335  0.07325559675552096  0.33454727804992657  1.0000
data_image54
_chemical_formula_structural       Mg2C8O12
_chemical_formula_sum              "Mg2 C8 O12"
_cell_length_a       7.872530813609877
_cell_length_b       7.872530813609877
_cell_length_c       7.368803275525341
_cell_angle_alpha    62.34925540174321
_cell_angle_beta     62.34925540174321
_cell_angle_gamma    54.72736521231912

_space_group_name_H-M_alt    "P 1"
_space_group_IT_number       1

loop_
  _space_group_symop_operation_xyz
  'x, y, z'

loop_
  _atom_site_type_symbol
  _atom_site_label
  _atom_site_symmetry_multiplicity
  _atom_site_fract_x
  _atom_site_fract_y
  _atom_site_fract_z
  _atom_site_occupancy
  Mg  Mg1       1.0  0.4602703062302778  0.5505156578509789  0.7541204312590271  1.0000
  Mg  Mg2       1.0  0.9984333822272382  0.12499348973064475  0.4285447374951868  1.0000
  C   C1        1.0  0.44573028222084876  0.595717788406741  0.331600382516003  1.0000
  C   C2        1.0  0.3343448023164577  0.8144570148849533  0.231809090704358  1.0000
  C   C3        1.0  0.9690939282931448  0.7689804633399278  0.5690769057399419  1.0000
  C   C4        1.0  0.28371184029975227  0.7546126646437591  0.09217619248647005  1.0000
  C   C5        1.0  0.5860205263970084  0.41766545184469417  0.41153527781351995  1.0000
  C   C6        1.0  0.6260221591261612  0.9543138633055223  0.3235821614270654  1.0000
  C   C7        1.0  0.9885810944979255  0.09628794268600702  0.8438900451850202  1.0000
  C   C8        1.0  0.1766447416662332  0.4598310043479902  0.18629967685943427  1.0000
  O   O1        1.0  0.5678899655635095  0.31460497166057233  0.6540941258698462  1.0000
  O   O2        1.0  0.665818959467066  0.7770350892840132  0.42108744984402946  1.0000
  O   O3        1.0  0.970269725197878  0.9687945284268501  0.8077138349718058  1.0000
  O   O4        1.0  0.3118232908804632  0.429773959745487  0.024632174767078796  1.0000
  O   O5        1.0  0.7506917813220921  0.30144667470702186  0.2817870989781756  1.0000
  O   O6        1.0  0.37412301931350034  0.7517020627841804  0.906481016329879  1.0000
  O   O7        1.0  0.9419227648600568  0.25914532691468367  0.8707811268674254  1.0000
  O   O8        1.0  0.04692600774509236  0.372818396204333  0.34877103827395195  1.0000
  O   O9        1.0  0.9012954053620373  0.6615070340992514  0.6981146245207218  1.0000
  O   O10       1.0  0.1475284210646807  0.6316025279277958  0.2210848029843522  1.0000
  O   O11       1.0  0.2895206346712033  0.982418777739385  0.2526188516808095  1.0000
  O   O12       1.0  0.549629141587721  0.1531939303202746  0.23198110971344157  1.0000
data_image55
_chemical_formula_structural       Mg2C8O12
_chemical_formula_sum              "Mg2 C8 O12"
_cell_length_a       7.872530813609877
_cell_length_b       7.872530813609877
_cell_length_c       7.368803275525341
_cell_angle_alpha    62.34925540174321
_cell_angle_beta     62.34925540174321
_cell_angle_gamma    54.72736521231912

_space_group_name_H-M_alt    "P 1"
_space_group_IT_number       1

loop_
  _space_group_symop_operation_xyz
  'x, y, z'

loop_
  _atom_site_type_symbol
  _atom_site_label
  _atom_site_symmetry_multiplicity
  _atom_site_fract_x
  _atom_site_fract_y
  _atom_site_fract_z
  _atom_site_occupancy
  Mg  Mg1       1.0  0.43528893685020176  0.6085054135819548  0.7211710170153584  1.0000
  Mg  Mg2       1.0  0.0390711754955796  0.18384791259174157  0.3717266503370858  1.0000
  C   C1        1.0  0.4348133561736385  0.6092934909046586  0.41874693570983473  1.0000
  C   C2        1.0  0.33076940228469504  0.7681710228460689  0.29487956342873234  1.0000
  C   C3        1.0  0.9190711568779962  0.7284714308353346  0.6488514996870455  1.0000
  C   C4        1.0  0.2991725137465722  0.7335135910335178  0.1408961356122221  1.0000
  C   C5        1.0  0.6400371320754339  0.43377097542223336  0.4143575760577468  1.0000
  C   C6        1.0  0.5796495261375136  0.9122975221700229  0.37286690670370504  1.0000
  C   C7        1.0  0.012459088240064364  0.9859027402238069  0.7923702635068287  1.0000
  C   C8        1.0  0.13807986868095148  0.5357597149963784  0.1593937891313273  1.0000
  O   O1        1.0  0.6807258364768121  0.3259763820368135  0.6009908398770063  1.0000
  O   O2        1.0  0.515128630292333  0.8571691193700173  0.5627708970422036  1.0000
  O   O3        1.0  0.12484488751933642  0.8657399804459351  0.6898118629745091  1.0000
  O   O4        1.0  0.23270716240753267  0.5105615589517459  0.9781853257550055  1.0000
  O   O5        1.0  0.75950272883699  0.3645046626239491  0.25133730283882505  1.0000
  O   O6        1.0  0.38905232978001786  0.7459520833215849  0.9482724790907006  1.0000
  O   O7        1.0  0.9157950958167576  0.07646442294293991  0.9196694142450204  1.0000
  O   O8        1.0  0.03543889295778638  0.45973365890762463  0.3435670354862388  1.0000
  O   O9        1.0  0.9152125100760852  0.5492484358215602  0.7328898797109251  1.0000
  O   O10       1.0  0.08423650689316425  0.7591802165118305  0.19530966841375771  1.0000
  O   O11       1.0  0.27289608522999664  0.9719643778086174  0.22949939738572733  1.0000
  O   O12       1.0  0.6126144358815144  0.055793013621657214  0.21324780065913873  1.0000
data_image56
_chemical_formula_structural       Mg2C8O12
_chemical_formula_sum              "Mg2 C8 O12"
_cell_length_a       7.872530813609877
_cell_length_b       7.872530813609877
_cell_length_c       7.368803275525341
_cell_angle_alpha    62.34925540174321
_cell_angle_beta     62.34925540174321
_cell_angle_gamma    54.72736521231912

_space_group_name_H-M_alt    "P 1"
_space_group_IT_number       1

loop_
  _space_group_symop_operation_xyz
  'x, y, z'

loop_
  _atom_site_type_symbol
  _atom_site_label
  _atom_site_symmetry_multiplicity
  _atom_site_fract_x
  _atom_site_fract_y
  _atom_site_fract_z
  _atom_site_occupancy
  Mg  Mg1       1.0  0.3977167926758443  0.5840144318603322  0.7581975728547924  1.0000
  Mg  Mg2       1.0  0.04163032382027275  0.20663753753866484  0.2935142764021469  1.0000
  C   C1        1.0  0.4733178775520588  0.6523380013322232  0.3954515067971085  1.0000
  C   C2        1.0  0.3888279163908843  0.7787282338190928  0.24006429297078416  1.0000
  C   C3        1.0  0.06852773470559768  0.5635834422370025  0.6991439992090779  1.0000
  C   C4        1.0  0.3711312088201512  0.6592821730392682  0.14147739718486146  1.0000
  C   C5        1.0  0.6326575966928053  0.4348091350634377  0.44124872144452165  1.0000
  C   C6        1.0  0.505520844971876  0.01779990680178245  0.36542824032896803  1.0000
  C   C7        1.0  0.002871201908672294  0.060008401549326656  0.7778363358909449  1.0000
  C   C8        1.0  0.09290649092070496  0.5274030489513701  0.20780535325020577  1.0000
  O   O1        1.0  0.669157732341633  0.3050955384377346  0.6357350647389565  1.0000
  O   O2        1.0  0.5721270007476844  0.8532269476747242  0.4990317664337155  1.0000
  O   O3        1.0  0.047042240073092545  0.020149985768520864  0.6155517027841079  1.0000
  O   O4        1.0  0.13679424267880508  0.5372247423853379  0.996450413897499  1.0000
  O   O5        1.0  0.7469805998163743  0.3457567742169129  0.27773125653923747  1.0000
  O   O6        1.0  0.503843436920478  0.5795299989546304  0.9822632483761949  1.0000
  O   O7        1.0  0.8810056818522588  0.12564758977821797  0.9299453548491471  1.0000
  O   O8        1.0  0.05636865706132751  0.4106926314554862  0.3872594594871468  1.0000
  O   O9        1.0  0.915992945402351  0.5692820177881922  0.8245531951928338  1.0000
  O   O10       1.0  0.17127552056758458  0.6790227034500745  0.21006770931686997  1.0000
  O   O11       1.0  0.2778108078560522  0.992931972080797  0.1356631623882803  1.0000
  O   O12       1.0  0.4758502538937337  0.13649113472543944  0.2139092981695301  1.0000
data_image57
_chemical_formula_structural       Mg2C8O12
_chemical_formula_sum              "Mg2 C8 O12"
_cell_length_a       7.872530813609877
_cell_length_b       7.872530813609877
_cell_length_c       7.368803275525341
_cell_angle_alpha    62.34925540174321
_cell_angle_beta     62.34925540174321
_cell_angle_gamma    54.72736521231912

_space_group_name_H-M_alt    "P 1"
_space_group_IT_number       1

loop_
  _space_group_symop_operation_xyz
  'x, y, z'

loop_
  _atom_site_type_symbol
  _atom_site_label
  _atom_site_symmetry_multiplicity
  _atom_site_fract_x
  _atom_site_fract_y
  _atom_site_fract_z
  _atom_site_occupancy
  Mg  Mg1       1.0  0.30711909623273176  0.6869152166673829  0.7199488171494772  1.0000
  Mg  Mg2       1.0  0.05854788985495475  0.19438290483143794  0.27089399520925  1.0000
  C   C1        1.0  0.4800144228654031  0.6816096546346688  0.3951141357525609  1.0000
  C   C2        1.0  0.3850438767010978  0.7435432938138236  0.24338703086978217  1.0000
  C   C3        1.0  0.9685892040255322  0.5838634491640511  0.8469680866098689  1.0000
  C   C4        1.0  0.3966544369461728  0.6222237011365553  0.13494684722642958  1.0000
  C   C5        1.0  0.5676013488203269  0.43167681990198403  0.4968579659139554  1.0000
  C   C6        1.0  0.6414180858247764  0.9734676292071839  0.2926278145813286  1.0000
  C   C7        1.0  0.9169454801439472  0.0971642623598283  0.7586710237825766  1.0000
  C   C8        1.0  0.15703877376196584  0.4897936795040746  0.2218326998515756  1.0000
  O   O1        1.0  0.5099381056729364  0.35527986196852596  0.6910211585413362  1.0000
  O   O2        1.0  0.7324897287338645  0.9581123522754191  0.3998345671209004  1.0000
  O   O3        1.0  0.03091239473922447  0.0049413157079385255  0.619852651043701  1.0000
  O   O4        1.0  0.06536896449324522  0.6718334788345711  0.09307296758942907  1.0000
  O   O5        1.0  0.7448595122863493  0.3052789446272081  0.38560654677562767  1.0000
  O   O6        1.0  0.4387926901357207  0.6768832130427745  0.9256226689162642  1.0000
  O   O7        1.0  0.8748867107875917  0.17193100691107752  0.897420603324064  1.0000
  O   O8        1.0  0.0819357674760336  0.36213827199304527  0.36554251398398385  1.0000
  O   O9        1.0  0.9711627455880081  0.56979337265711  0.7069250694505591  1.0000
  O   O10       1.0  0.33950201491913967  0.4487423208232895  0.2372560556882446  1.0000
  O   O11       1.0  0.23883594293522992  0.9349980061613725  0.19780927121233885  1.0000
  O   O12       1.0  0.5535612702908053  0.009829505140623081  0.1906232936178845  1.0000
data_image58
_chemical_formula_structural       Mg2C8O12
_chemical_formula_sum              "Mg2 C8 O12"
_cell_length_a       7.872530813609877
_cell_length_b       7.872530813609877
_cell_length_c       7.368803275525341
_cell_angle_alpha    62.34925540174321
_cell_angle_beta     62.34925540174321
_cell_angle_gamma    54.72736521231912

_space_group_name_H-M_alt    "P 1"
_space_group_IT_number       1

loop_
  _space_group_symop_operation_xyz
  'x, y, z'

loop_
  _atom_site_type_symbol
  _atom_site_label
  _atom_site_symmetry_multiplicity
  _atom_site_fract_x
  _atom_site_fract_y
  _atom_site_fract_z
  _atom_site_occupancy
  Mg  Mg1       1.0  0.3392438786586529  0.6500748478882994  0.7522996757214058  1.0000
  Mg  Mg2       1.0  0.04673970109226992  0.0766479810461682  0.4296518048087315  1.0000
  C   C1        1.0  0.3271787387876576  0.5852210928899941  0.46739613938832114  1.0000
  C   C2        1.0  0.285272895357674  0.7347380805220244  0.2684155565940136  1.0000
  C   C3        1.0  0.8476830928667716  0.5148753295496317  0.9562498425966627  1.0000
  C   C4        1.0  0.3779121981836531  0.6407281794750939  0.07608763059331268  1.0000
  C   C5        1.0  0.5882337541930331  0.43050558827009394  0.47233874757781297  1.0000
  C   C6        1.0  0.5940496174533163  0.01257332729952454  0.2614113074526232  1.0000
  C   C7        1.0  0.05292037402943639  0.12333687700603053  0.7574690154043926  1.0000
  C   C8        1.0  0.16677157103518891  0.4852879428292469  0.15813179224542218  1.0000
  O   O1        1.0  0.6364902469883579  0.42427727473766663  0.6374604095521853  1.0000
  O   O2        1.0  0.6802014776777803  0.09763764251356966  0.26247655133292125  1.0000
  O   O3        1.0  0.12882428688074943  0.963837759369911  0.6849016464650528  1.0000
  O   O4        1.0  0.06763538240002306  0.6603641635480679  0.019468138069070662  1.0000
  O   O5        1.0  0.74915614728977  0.34290827472835017  0.3326891651614512  1.0000
  O   O6        1.0  0.46887651444705586  0.730705384671946  0.8727825282990442  1.0000
  O   O7        1.0  0.9550339410372624  0.2290375425165735  0.8702184941862389  1.0000
  O   O8        1.0  0.07621006636354138  0.37600914709413047  0.27817930245354683  1.0000
  O   O9        1.0  0.8938441752481836  0.6534614213310185  0.843908587129309  1.0000
  O   O10       1.0  0.4006471049677988  0.4188886351370624  0.12502700056524588  1.0000
  O   O11       1.0  0.19131218773063388  0.9486962554486458  0.20250076567845543  1.0000
  O   O12       1.0  0.509942650038004  0.9319357947899309  0.26889270778549396  1.0000
data_image59
_chemical_formula_structural       Mg2C8O12
_chemical_formula_sum              "Mg2 C8 O12"
_cell_length_a       7.872530813609877
_cell_length_b       7.872530813609877
_cell_length_c       7.368803275525341
_cell_angle_alpha    62.34925540174321
_cell_angle_beta     62.34925540174321
_cell_angle_gamma    54.72736521231912

_space_group_name_H-M_alt    "P 1"
_space_group_IT_number       1

loop_
  _space_group_symop_operation_xyz
  'x, y, z'

loop_
  _atom_site_type_symbol
  _atom_site_label
  _atom_site_symmetry_multiplicity
  _atom_site_fract_x
  _atom_site_fract_y
  _atom_site_fract_z
  _atom_site_occupancy
  Mg  Mg1       1.0  0.32638438280386817  0.6959440459835231  0.7374424124372175  1.0000
  Mg  Mg2       1.0  0.027072566583018688  0.1452941397439761  0.38342977230291975  1.0000
  C   C1        1.0  0.4243990062180651  0.5818231482086281  0.45535730257185963  1.0000
  C   C2        1.0  0.27964109612930316  0.7012907205651788  0.3380933931563831  1.0000
  C   C3        1.0  0.6692677811994863  0.7123326981595836  0.8644469892659673  1.0000
  C   C4        1.0  0.38103154220772073  0.6438094828648459  0.1273719669365041  1.0000
  C   C5        1.0  0.628760339053795  0.39660720167102986  0.4827645838006628  1.0000
  C   C6        1.0  0.6689156267236265  0.9610310965315499  0.23920858344795148  1.0000
  C   C7        1.0  0.006943146770169495  0.1502145609829365  0.8023567148430315  1.0000
  C   C8        1.0  0.20707682267576202  0.43708439756644263  0.13220803007472237  1.0000
  O   O1        1.0  0.691091267048856  0.43851794800529365  0.5738945706242387  1.0000
  O   O2        1.0  0.8475165071513469  0.949463550069249  0.11641963691878687  1.0000
  O   O3        1.0  0.9701248138676273  0.08273534087538283  0.711973356215001  1.0000
  O   O4        1.0  0.25718364796433557  0.45270474890421136  0.9384264478679921  1.0000
  O   O5        1.0  0.7319673416667661  0.269849425254751  0.3733006804794818  1.0000
  O   O6        1.0  0.33822001279896974  0.7944673276536548  0.9639578131308107  1.0000
  O   O7        1.0  0.08288431649093737  0.18962069033008835  0.8586257411786906  1.0000
  O   O8        1.0  0.104807415979698  0.3691763790334561  0.3263171900778412  1.0000
  O   O9        1.0  0.7829026558132489  0.7489966698052123  0.6910468132017601  1.0000
  O   O10       1.0  0.3963340052933768  0.4563867674407149  0.16546135365305673  1.0000
  O   O11       1.0  0.0710601057125572  0.8432939228461928  0.38897872871675165  1.0000
  O   O12       1.0  0.514091360670498  0.9646166423965024  0.3660489607356209  1.0000
data_image60
_chemical_formula_structural       Mg2C8O12
_chemical_formula_sum              "Mg2 C8 O12"
_cell_length_a       7.872530813609877
_cell_length_b       7.872530813609877
_cell_length_c       7.368803275525341
_cell_angle_alpha    62.34925540174321
_cell_angle_beta     62.34925540174321
_cell_angle_gamma    54.72736521231912

_space_group_name_H-M_alt    "P 1"
_space_group_IT_number       1

loop_
  _space_group_symop_operation_xyz
  'x, y, z'

loop_
  _atom_site_type_symbol
  _atom_site_label
  _atom_site_symmetry_multiplicity
  _atom_site_fract_x
  _atom_site_fract_y
  _atom_site_fract_z
  _atom_site_occupancy
  Mg  Mg1       1.0  0.3888674564728954  0.6970411978734179  0.6791740614638249  1.0000
  Mg  Mg2       1.0  0.9700589292691655  0.20238048323106256  0.4035622910074687  1.0000
  C   C1        1.0  0.37127673096601516  0.6413218397354125  0.4457878191618448  1.0000
  C   C2        1.0  0.27594802840466004  0.7970824988192209  0.27286039940085116  1.0000
  C   C3        1.0  0.7801353024618103  0.5308986433757926  0.9509543876582153  1.0000
  C   C4        1.0  0.2979255967895453  0.7013419966917567  0.11952885985583832  1.0000
  C   C5        1.0  0.5848371216387744  0.45414534708869464  0.4214229684233419  1.0000
  C   C6        1.0  0.6691168702311723  0.8778161206134052  0.3958996643561491  1.0000
  C   C7        1.0  0.11853298733570217  0.06493105032719726  0.762996764235344  1.0000
  C   C8        1.0  0.2485073669909135  0.4090899499341762  0.1227700834268255  1.0000
  O   O1        1.0  0.6586879215727726  0.49427249928592054  0.5209961270353103  1.0000
  O   O2        1.0  0.7490958747944878  0.783828018161159  0.2612740696143655  1.0000
  O   O3        1.0  0.171825882439262  0.004013689166750026  0.6099124422606287  1.0000
  O   O4        1.0  0.2765737233155049  0.43304346546451383  0.9298416675199745  1.0000
  O   O5        1.0  0.6707768264709212  0.2768386616917309  0.38385911516969584  1.0000
  O   O6        1.0  0.16369721692851  0.8532405877354281  0.9721100187724095  1.0000
  O   O7        1.0  0.04808411928399334  0.212303374649817  0.8264318006066467  1.0000
  O   O8        1.0  0.1538136027322614  0.37647600124421654  0.3198793850724331  1.0000
  O   O9        1.0  0.7104471198974117  0.5940673994794469  0.8092346208707593  1.0000
  O   O10       1.0  0.40477926101764883  0.5297216488264379  0.09374994147412058  1.0000
  O   O11       1.0  0.16735408608819238  0.005631886068383496  0.25213106578626787  1.0000
  O   O12       1.0  0.5471234824121833  0.9881690533467071  0.513152582585936  1.0000
data_image61
_chemical_formula_structural       Mg2C8O12
_chemical_formula_sum              "Mg2 C8 O12"
_cell_length_a       7.872530813609877
_cell_length_b       7.872530813609877
_cell_length_c       7.368803275525341
_cell_angle_alpha    62.34925540174321
_cell_angle_beta     62.34925540174321
_cell_angle_gamma    54.72736521231912

_space_group_name_H-M_alt    "P 1"
_space_group_IT_number       1

loop_
  _space_group_symop_operation_xyz
  'x, y, z'

loop_
  _atom_site_type_symbol
  _atom_site_label
  _atom_site_symmetry_multiplicity
  _atom_site_fract_x
  _atom_site_fract_y
  _atom_site_fract_z
  _atom_site_occupancy
  Mg  Mg1       1.0  0.26057555869819354  0.655169348896531  0.7319978207337688  1.0000
  Mg  Mg2       1.0  0.011888591900830274  0.1345709660585523  0.4168241621812662  1.0000
  C   C1        1.0  0.38310203870356424  0.7085250101099418  0.3822921729584292  1.0000
  C   C2        1.0  0.26519149854102625  0.8182777428925707  0.26494886714939864  1.0000
  C   C3        1.0  0.9190025906777356  0.5237176308023551  0.8593960888356913  1.0000
  C   C4        1.0  0.3459111070884646  0.7106032064931984  0.06970843518626425  1.0000
  C   C5        1.0  0.5891557188904561  0.5455914264269632  0.384065136363404  1.0000
  C   C6        1.0  0.5868288535982651  0.8805825379041744  0.45451036691888336  1.0000
  C   C7        1.0  0.030548646622235553  0.045636273129965994  0.8291924209905414  1.0000
  C   C8        1.0  0.21269740226582962  0.38203543996670175  0.1339822483460411  1.0000
  O   O1        1.0  0.579378441804592  0.5073834607541943  0.6028904240295708  1.0000
  O   O2        1.0  0.7112256434621107  0.8423557489358824  0.27973256945060665  1.0000
  O   O3        1.0  0.0018667148834692338  0.9735376011226656  0.7439090219636056  1.0000
  O   O4        1.0  0.1842712426784256  0.42770702417243334  0.9733571613634727  1.0000
  O   O5        1.0  0.7659867962275545  0.3849821190637648  0.2920038919216126  1.0000
  O   O6        1.0  0.14786454145396566  0.8059975597967404  0.023617183094402767  1.0000
  O   O7        1.0  0.008030667603103336  0.2302020555929004  0.7965490475192628  1.0000
  O   O8        1.0  0.3038443162669782  0.25250858877903326  0.2695197406255996  1.0000
  O   O9        1.0  0.955680341158903  0.6650599534284346  0.7481346983154475  1.0000
  O   O10       1.0  0.5271262716339042  0.6117410926395799  0.9529228101299666  1.0000
  O   O11       1.0  0.21337187454706394  0.01694189710053773  0.1598789859348584  1.0000
  O   O12       1.0  0.4656959064006885  0.898498293413676  0.6321841649199309  1.0000
data_image62
_chemical_formula_structural       Mg2C8O12
_chemical_formula_sum              "Mg2 C8 O12"
_cell_length_a       7.872530813609877
_cell_length_b       7.872530813609877
_cell_length_c       7.368803275525341
_cell_angle_alpha    62.34925540174321
_cell_angle_beta     62.34925540174321
_cell_angle_gamma    54.72736521231912

_space_group_name_H-M_alt    "P 1"
_space_group_IT_number       1

loop_
  _space_group_symop_operation_xyz
  'x, y, z'

loop_
  _atom_site_type_symbol
  _atom_site_label
  _atom_site_symmetry_multiplicity
  _atom_site_fract_x
  _atom_site_fract_y
  _atom_site_fract_z
  _atom_site_occupancy
  Mg  Mg1       1.0  0.2600731895585835  0.6388293119279056  0.7542135890304557  1.0000
  Mg  Mg2       1.0  0.8624247512646707  0.1835725607914002  0.4025342622152853  1.0000
  C   C1        1.0  0.42857226762851564  0.6587653223646401  0.37811553631675954  1.0000
  C   C2        1.0  0.2986259736132892  0.7988230611446316  0.2545672174763934  1.0000
  C   C3        1.0  0.8706954250716673  0.6824550245808284  0.7174579440027713  1.0000
  C   C4        1.0  0.33033342198114196  0.7348230773051677  0.05526410436237039  1.0000
  C   C5        1.0  0.6498753834957389  0.5316935011310773  0.3752596485280249  1.0000
  C   C6        1.0  0.5730568987569584  0.9615960262777835  0.4774693101866522  1.0000
  C   C7        1.0  0.9975371366220382  0.039391032976825946  0.8252753167098984  1.0000
  C   C8        1.0  0.30661853770360253  0.3142456501726789  0.13801305179433565  1.0000
  O   O1        1.0  0.6525722786667136  0.39462219779453356  0.5579691730116376  1.0000
  O   O2        1.0  0.6631951672277447  0.060260863462401115  0.45041684617565747  1.0000
  O   O3        1.0  0.03581994293620738  0.9945003121344754  0.6578436201199924  1.0000
  O   O4        1.0  0.33435751025928795  0.311738781627602  0.9599766986460501  1.0000
  O   O5        1.0  0.809378237766106  0.5516800502991768  0.22834275542619112  1.0000
  O   O6        1.0  0.2294739183909231  0.656957511535756  0.055269147791022495  1.0000
  O   O7        1.0  0.9631216175150277  0.1931021744264704  0.8507076625053889  1.0000
  O   O8        1.0  0.2878388948184153  0.31510553897469595  0.3130795626976868  1.0000
  O   O9        1.0  0.9071969173247746  0.5109778293618127  0.7566516993939381  1.0000
  O   O10       1.0  0.5414067773104492  0.6629576107389407  0.9456457208816079  1.0000
  O   O11       1.0  0.11254233242870497  0.926425043620322  0.32217367581779627  1.0000
  O   O12       1.0  0.46337327114341376  0.9085581297821641  0.4803825577352365  1.0000
data_image63
_chemical_formula_structural       Mg2C8O12
_chemical_formula_sum              "Mg2 C8 O12"
_cell_length_a       7.872530813609877
_cell_length_b       7.872530813609877
_cell_length_c       7.368803275525341
_cell_angle_alpha    62.34925540174321
_cell_angle_beta     62.34925540174321
_cell_angle_gamma    54.72736521231912

_space_group_name_H-M_alt    "P 1"
_space_group_IT_number       1

loop_
  _space_group_symop_operation_xyz
  'x, y, z'

loop_
  _atom_site_type_symbol
  _atom_site_label
  _atom_site_symmetry_multiplicity
  _atom_site_fract_x
  _atom_site_fract_y
  _atom_site_fract_z
  _atom_site_occupancy
  Mg  Mg1       1.0  0.39348552683270344  0.5864824752861113  0.7075241164379438  1.0000
  Mg  Mg2       1.0  0.8914331625841491  0.1935626001914737  0.4250256496298827  1.0000
  C   C1        1.0  0.3835035543315696  0.7512862277238468  0.3270983652765833  1.0000
  C   C2        1.0  0.2760596244001281  0.8787138836487899  0.1606559672700644  1.0000
  C   C3        1.0  0.9133066733251846  0.6178048188240136  0.8156208240217905  1.0000
  C   C4        1.0  0.29944722560389614  0.8244972604436009  0.9797312687764141  1.0000
  C   C5        1.0  0.6322952421506834  0.5692123557508082  0.32177833358709024  1.0000
  C   C6        1.0  0.6424221649492179  0.9616759031637271  0.49962506777294735  1.0000
  C   C7        1.0  0.951899076552128  0.9676406750267788  0.8849348499826419  1.0000
  C   C8        1.0  0.22727589092013042  0.3615505512796218  0.17804228026182067  1.0000
  O   O1        1.0  0.6796307193252383  0.47139127712689677  0.5277633567564932  1.0000
  O   O2        1.0  0.5468697015930588  0.12945038043055757  0.5216456472306172  1.0000
  O   O3        1.0  0.06193227127285472  0.9279754847009437  0.7109881487811643  1.0000
  O   O4        1.0  0.34110382368879305  0.3018737961941498  0.018788799434233727  1.0000
  O   O5        1.0  0.7739176269978957  0.4834695265798251  0.17331885519639484  1.0000
  O   O6        1.0  0.1472392022878947  0.7691131416466717  0.02772453562918259  1.0000
  O   O7        1.0  0.7771758220822549  0.9482862645272596  0.01610531447764596  1.0000
  O   O8        1.0  0.176684030555578  0.37251457531488286  0.33654485198828277  1.0000
  O   O9        1.0  0.04231972454504396  0.464710271583023  0.7628330646112009  1.0000
  O   O10       1.0  0.46206179384598195  0.6885360152919334  0.8876861710603533  1.0000
  O   O11       1.0  0.0885522751170259  0.043963244964328796  0.20574519295159807  1.0000
  O   O12       1.0  0.7527511991432831  0.7936507439225158  0.46556161992868733  1.0000
data_image64
_chemical_formula_structural       Mg2C8O12
_chemical_formula_sum              "Mg2 C8 O12"
_cell_length_a       7.872530813609877
_cell_length_b       7.872530813609877
_cell_length_c       7.368803275525341
_cell_angle_alpha    62.34925540174321
_cell_angle_beta     62.34925540174321
_cell_angle_gamma    54.72736521231912

_space_group_name_H-M_alt    "P 1"
_space_group_IT_number       1

loop_
  _space_group_symop_operation_xyz
  'x, y, z'

loop_
  _atom_site_type_symbol
  _atom_site_label
  _atom_site_symmetry_multiplicity
  _atom_site_fract_x
  _atom_site_fract_y
  _atom_site_fract_z
  _atom_site_occupancy
  Mg  Mg1       1.0  0.41509824884557206  0.6243532459746594  0.7164616211332779  1.0000
  Mg  Mg2       1.0  0.9474471032646209  0.28712221146520434  0.39104972614960004  1.0000
  C   C1        1.0  0.3733695515689449  0.6914621267217406  0.3028771505240835  1.0000
  C   C2        1.0  0.25809629445699567  0.8826150635265908  0.18016507468065365  1.0000
  C   C3        1.0  0.992816461525985  0.460564900408858  0.8156810436104072  1.0000
  C   C4        1.0  0.2060026944913444  0.8251658297530649  0.056836430495925655  1.0000
  C   C5        1.0  0.5819309371454999  0.5241778795462466  0.32624328600084995  1.0000
  C   C6        1.0  0.645654077909732  0.003134507493994798  0.48548501644294273  1.0000
  C   C7        1.0  0.011906035297538864  0.9013724409177567  0.8347714423206618  1.0000
  C   C8        1.0  0.2594938201189698  0.4042124985013963  0.18371381845037704  1.0000
  O   O1        1.0  0.6335991021217066  0.43008503147333643  0.5248472738460761  1.0000
  O   O2        1.0  0.4961589547679437  0.13848977772124127  0.5636202453397938  1.0000
  O   O3        1.0  0.1769046189645742  0.8962437322374964  0.6747908825396138  1.0000
  O   O4        1.0  0.4361815803737354  0.2419844001955057  0.10169105682127522  1.0000
  O   O5        1.0  0.7738861416795096  0.471538519557111  0.14020223917304622  1.0000
  O   O6        1.0  0.019173095466804513  0.9635438215594392  0.9883315253121427  1.0000
  O   O7        1.0  0.8216933826557296  0.888806312997009  0.8985114061763609  1.0000
  O   O8        1.0  0.08948407496063121  0.4979375650783642  0.32983502554387156  1.0000
  O   O9        1.0  0.07550327312722138  0.3091774059969483  0.764771233164131  1.0000
  O   O10       1.0  0.3172135442600136  0.6157776420807648  0.019080245687334695  1.0000
  O   O11       1.0  0.0822760534588056  0.025207604214984913  0.28914056366226365  1.0000
  O   O12       1.0  0.8063446599543644  0.8962716615640686  0.38480681321464183  1.0000
data_image65
_chemical_formula_structural       Mg2C8O12
_chemical_formula_sum              "Mg2 C8 O12"
_cell_length_a       7.872530813609877
_cell_length_b       7.872530813609877
_cell_length_c       7.368803275525341
_cell_angle_alpha    62.34925540174321
_cell_angle_beta     62.34925540174321
_cell_angle_gamma    54.72736521231912

_space_group_name_H-M_alt    "P 1"
_space_group_IT_number       1

loop_
  _space_group_symop_operation_xyz
  'x, y, z'

loop_
  _atom_site_type_symbol
  _atom_site_label
  _atom_site_symmetry_multiplicity
  _atom_site_fract_x
  _atom_site_fract_y
  _atom_site_fract_z
  _atom_site_occupancy
  Mg  Mg1       1.0  0.3330580723083107  0.6628064218193719  0.7327696153852613  1.0000
  Mg  Mg2       1.0  0.9064371427025616  0.16249987599223284  0.4590839778617913  1.0000
  C   C1        1.0  0.32141014112077276  0.7165296253193483  0.3847808736632984  1.0000
  C   C2        1.0  0.22108226824672017  0.8671075520446981  0.22240294563020796  1.0000
  C   C3        1.0  0.23756535081910665  0.45113095227260663  0.7631381310963511  1.0000
  C   C4        1.0  0.1328591659743258  0.8402488312126515  0.1008087925924747  1.0000
  C   C5        1.0  0.5479463209471225  0.5059176893400541  0.3534491268930705  1.0000
  C   C6        1.0  0.6403579494802365  0.9562252013756253  0.4938273714321858  1.0000
  C   C7        1.0  0.01890178632721473  0.02025814112077147  0.7825081657083446  1.0000
  C   C8        1.0  0.325539322009606  0.3102688132793292  0.17912835473873767  1.0000
  O   O1        1.0  0.6724111779818339  0.46616814583066746  0.44190180562903003  1.0000
  O   O2        1.0  0.5830756531261123  0.12224948809615577  0.5150569280516522  1.0000
  O   O3        1.0  0.20557052220829974  0.010945978812118298  0.6798351822613917  1.0000
  O   O4        1.0  0.4871395346575884  0.2791119299620675  0.0344689885677385  1.0000
  O   O5        1.0  0.6053636823426372  0.4347353028223029  0.20670902696982826  1.0000
  O   O6        1.0  0.9662220526497076  0.9853170756419323  0.029500055761835637  1.0000
  O   O7        1.0  0.924063221537661  0.9802370445938928  0.7153419379777994  1.0000
  O   O8        1.0  0.19393136505781355  0.2720470555663046  0.33398610707049436  1.0000
  O   O9        1.0  0.10096454100064522  0.3960367911170502  0.8644346910621903  1.0000
  O   O10       1.0  0.24215348093402828  0.6946046364215596  0.01671213805895802  1.0000
  O   O11       1.0  0.17647480031353913  0.05858359289179904  0.21072711206096975  1.0000
  O   O12       1.0  0.6692975473452942  0.8267602777880212  0.43300569089632446  1.0000
data_image66
_chemical_formula_structural       Mg2C8O12
_chemical_formula_sum              "Mg2 C8 O12"
_cell_length_a       7.872530813609877
_cell_length_b       7.872530813609877
_cell_length_c       7.368803275525341
_cell_angle_alpha    62.34925540174321
_cell_angle_beta     62.34925540174321
_cell_angle_gamma    54.72736521231912

_space_group_name_H-M_alt    "P 1"
_space_group_IT_number       1

loop_
  _space_group_symop_operation_xyz
  'x, y, z'

loop_
  _atom_site_type_symbol
  _atom_site_label
  _atom_site_symmetry_multiplicity
  _atom_site_fract_x
  _atom_site_fract_y
  _atom_site_fract_z
  _atom_site_occupancy
  Mg  Mg1       1.0  0.43079685009771784  0.7171579688773642  0.6060505356111513  1.0000
  Mg  Mg2       1.0  0.83394162781261  0.20407329787314393  0.4555621888263927  1.0000
  C   C1        1.0  0.3542297714506635  0.7642253942993836  0.2783439476726518  1.0000
  C   C2        1.0  0.17640089901193023  0.8710871177062942  0.21167456760916706  1.0000
  C   C3        1.0  0.11015765710696206  0.5545683933703839  0.7421663372055165  1.0000
  C   C4        1.0  0.1537653656251274  0.7500449649829599  0.09352135111613294  1.0000
  C   C5        1.0  0.5318174191161933  0.5320423994178529  0.3098477373605852  1.0000
  C   C6        1.0  0.702738515942988  0.867121225627128  0.5955188755786895  1.0000
  C   C7        1.0  0.024910537304191793  0.0343378806464739  0.8001990058964272  1.0000
  C   C8        1.0  0.3097570004740672  0.26160742430105516  0.2410394899261139  1.0000
  O   O1        1.0  0.5499813548299592  0.49629605857404213  0.4917323918070944  1.0000
  O   O2        1.0  0.8003583945176247  0.9349697854518648  0.633558737808467  1.0000
  O   O3        1.0  0.23413776174330092  0.9747224519556751  0.7037871417264459  1.0000
  O   O4        1.0  0.40648514629556776  0.1527283515415284  0.1273218792717714  1.0000
  O   O5        1.0  0.6643298858406347  0.4024257035361659  0.1941317038016107  1.0000
  O   O6        1.0  0.9496361240669756  0.9063870507086592  0.01917029760556521  1.0000
  O   O7        1.0  0.8782214484475165  0.1914706328216964  0.7190541018391167  1.0000
  O   O8        1.0  0.16104243643134164  0.37018254183519983  0.34820252859679446  1.0000
  O   O9        1.0  0.10568933662959545  0.3911659969498969  0.8244428936913409  1.0000
  O   O10       1.0  0.3225334727664582  0.6408347246731121  0.973481595528013  1.0000
  O   O11       1.0  0.09623468575409977  0.07118535326526243  0.2030038158995911  1.0000
  O   O12       1.0  0.6820608335678675  0.8735461653169272  0.4476588353825055  1.0000
data_image67
_chemical_formula_structural       Mg2C8O12
_chemical_formula_sum              "Mg2 C8 O12"
_cell_length_a       7.872530813609877
_cell_length_b       7.872530813609877
_cell_length_c       7.368803275525341
_cell_angle_alpha    62.34925540174321
_cell_angle_beta     62.34925540174321
_cell_angle_gamma    54.72736521231912

_space_group_name_H-M_alt    "P 1"
_space_group_IT_number       1

loop_
  _space_group_symop_operation_xyz
  'x, y, z'

loop_
  _atom_site_type_symbol
  _atom_site_label
  _atom_site_symmetry_multiplicity
  _atom_site_fract_x
  _atom_site_fract_y
  _atom_site_fract_z
  _atom_site_occupancy
  Mg  Mg1       1.0  0.3434234896270354  0.7627196230314941  0.59312376268524  1.0000
  Mg  Mg2       1.0  0.8426157491204409  0.16225089206592577  0.43928647851259567  1.0000
  C   C1        1.0  0.38094144002091895  0.6922573072878145  0.3283486255149802  1.0000
  C   C2        1.0  0.24888455912406204  0.80471805401845  0.20782139249877601  1.0000
  C   C3        1.0  0.17553721150862076  0.48618434558524326  0.8198131195560091  1.0000
  C   C4        1.0  0.2991651809942284  0.7494267688042118  0.00452458593802628  1.0000
  C   C5        1.0  0.5715755946603697  0.5295964052556816  0.3705614788041643  1.0000
  C   C6        1.0  0.6834720269629824  0.891089518832898  0.5522804753320343  1.0000
  C   C7        1.0  0.985080990019534  0.03139475668304752  0.8642282381303712  1.0000
  C   C8        1.0  0.2634321452499256  0.3071782062562326  0.10813114827226156  1.0000
  O   O1        1.0  0.5910200874690885  0.4590513720586419  0.5580932728654007  1.0000
  O   O2        1.0  0.6865357620504597  0.9855709331231914  0.6382848376758296  1.0000
  O   O3        1.0  0.06760118802176285  0.07919371205695924  0.6536068990954951  1.0000
  O   O4        1.0  0.40466606865821597  0.11872442143940215  0.11958563594262839  1.0000
  O   O5        1.0  0.7289653617178949  0.3979462472615815  0.24179519601803914  1.0000
  O   O6        1.0  0.13749636562108594  0.7782493519190116  0.9704829983970711  1.0000
  O   O7        1.0  0.8114968166704839  0.13220215810530522  0.9999714810939739  1.0000
  O   O8        1.0  0.12292842558207814  0.4681631555763599  0.15721585540365757  1.0000
  O   O9        1.0  0.013198028948580687  0.6299841855319268  0.7858177815276061  1.0000
  O   O10       1.0  0.4754967598832543  0.7171300203652058  0.8669558059545643  1.0000
  O   O11       1.0  0.05254468703580339  0.9141076779907708  0.33696331527433043  1.0000
  O   O12       1.0  0.6939794514177746  0.8294344432169327  0.41318474133934835  1.0000
data_image68
_chemical_formula_structural       Mg2C8O12
_chemical_formula_sum              "Mg2 C8 O12"
_cell_length_a       7.872530813609877
_cell_length_b       7.872530813609877
_cell_length_c       7.368803275525341
_cell_angle_alpha    62.34925540174321
_cell_angle_beta     62.34925540174321
_cell_angle_gamma    54.72736521231912

_space_group_name_H-M_alt    "P 1"
_space_group_IT_number       1

loop_
  _space_group_symop_operation_xyz
  'x, y, z'

loop_
  _atom_site_type_symbol
  _atom_site_label
  _atom_site_symmetry_multiplicity
  _atom_site_fract_x
  _atom_site_fract_y
  _atom_site_fract_z
  _atom_site_occupancy
  Mg  Mg1       1.0  0.3338266322012374  0.7932127944673756  0.640676222521397  1.0000
  Mg  Mg2       1.0  0.8480106746529213  0.18082837066241247  0.4354478189868765  1.0000
  C   C1        1.0  0.3817742632901226  0.7592886565345948  0.34533466564844945  1.0000
  C   C2        1.0  0.24636908195653195  0.7882380398669119  0.2555774635128042  1.0000
  C   C3        1.0  0.9805069123420044  0.568795689511217  0.8241632004623998  1.0000
  C   C4        1.0  0.3836736663977114  0.7333656134236233  0.004661372836395521  1.0000
  C   C5        1.0  0.5358560920479869  0.5198116897602387  0.37833598439079863  1.0000
  C   C6        1.0  0.7085623990520706  0.9065424849238891  0.41454202548323904  1.0000
  C   C7        1.0  0.8946852069441006  0.2597671817382225  0.8208277837419012  1.0000
  C   C8        1.0  0.34941475770949865  0.14385128742860248  0.12268578802312913  1.0000
  O   O1        1.0  0.568833982012577  0.43616050288912306  0.5824818276113877  1.0000
  O   O2        1.0  0.6348230983144563  0.06316852907016335  0.44894309268959576  1.0000
  O   O3        1.0  0.9670902756917321  0.17299867938771116  0.6786572668713121  1.0000
  O   O4        1.0  0.5114202890833883  0.16670383849171916  0.025761616143253896  1.0000
  O   O5        1.0  0.6033407497282145  0.3878439400116435  0.28502056207866533  1.0000
  O   O6        1.0  0.24892032588967666  0.7538582283657694  0.9320015007024598  1.0000
  O   O7        1.0  0.8507787447232024  0.19658137385009755  0.9966013522777686  1.0000
  O   O8        1.0  0.16495825363823424  0.17314804676239204  0.1994381612806182  1.0000
  O   O9        1.0  0.002406654026484656  0.6734111735717649  0.8760474962819824  1.0000
  O   O10       1.0  0.5819147255671782  0.684998143714433  0.9285683179612305  1.0000
  O   O11       1.0  0.04964323979834393  0.8312678194303493  0.35156191992054636  1.0000
  O   O12       1.0  0.702434460178877  0.7534554882742635  0.43921469713822575  1.0000
data_image69
_chemical_formula_structural       Mg2C8O12
_chemical_formula_sum              "Mg2 C8 O12"
_cell_length_a       7.872530813609877
_cell_length_b       7.872530813609877
_cell_length_c       7.368803275525341
_cell_angle_alpha    62.34925540174321
_cell_angle_beta     62.34925540174321
_cell_angle_gamma    54.72736521231912

_space_group_name_H-M_alt    "P 1"
_space_group_IT_number       1

loop_
  _space_group_symop_operation_xyz
  'x, y, z'

loop_
  _atom_site_type_symbol
  _atom_site_label
  _atom_site_symmetry_multiplicity
  _atom_site_fract_x
  _atom_site_fract_y
  _atom_site_fract_z
  _atom_site_occupancy
  Mg  Mg1       1.0  0.30025703755004896  0.7356480587962413  0.7087333479643438  1.0000
  Mg  Mg2       1.0  0.8790755768667047  0.1264692346326731  0.5244748739651727  1.0000
  C   C1        1.0  0.3129192580854789  0.6578513104474122  0.42849445533798747  1.0000
  C   C2        1.0  0.22937388009015747  0.8062606934729908  0.2619957284309169  1.0000
  C   C3        1.0  0.04825731129534941  0.569447317074946  0.722350311891916  1.0000
  C   C4        1.0  0.31056601839546993  0.8229119205628036  0.014482434392684061  1.0000
  C   C5        1.0  0.5299145716637625  0.47620967110002577  0.45017230522588414  1.0000
  C   C6        1.0  0.6135440471211155  0.9349213624611419  0.4174353745851037  1.0000
  C   C7        1.0  0.010742424864073508  0.2108940772419378  0.7694753868552975  1.0000
  C   C8        1.0  0.4000594558285387  0.13321999970742168  0.07740603512981692  1.0000
  O   O1        1.0  0.5556937967243666  0.445362166629121  0.6281766188431233  1.0000
  O   O2        1.0  0.6182932776366528  0.06479522072213717  0.4608800681160302  1.0000
  O   O3        1.0  0.04611568590253046  0.08587134588178785  0.6906023921356346  1.0000
  O   O4        1.0  0.5923513565304286  0.062014380224185456  0.9648335386670934  1.0000
  O   O5        1.0  0.6890796129461539  0.38031847448586953  0.30113880905373364  1.0000
  O   O6        1.0  0.23782549944878364  0.7040052860890453  0.004158593213079639  1.0000
  O   O7        1.0  0.8619879364915104  0.3365505284386572  0.8589243990158821  1.0000
  O   O8        1.0  0.22150620051645958  0.21405557130514308  0.1950139538317326  1.0000
  O   O9        1.0  0.9896572988376008  0.5354711320367611  0.9039273111008633  1.0000
  O   O10       1.0  0.38484433500651655  0.9245407491254712  0.8782429946204581  1.0000
  O   O11       1.0  0.027153677814118125  0.9729123361857851  0.2811005601736906  1.0000
  O   O12       1.0  0.6867830283017113  0.7879023057406196  0.3574594621188465  1.0000
data_image70
_chemical_formula_structural       Mg2C8O12
_chemical_formula_sum              "Mg2 C8 O12"
_cell_length_a       7.872530813609877
_cell_length_b       7.872530813609877
_cell_length_c       7.368803275525341
_cell_angle_alpha    62.34925540174321
_cell_angle_beta     62.34925540174321
_cell_angle_gamma    54.72736521231912

_space_group_name_H-M_alt    "P 1"
_space_group_IT_number       1

loop_
  _space_group_symop_operation_xyz
  'x, y, z'

loop_
  _atom_site_type_symbol
  _atom_site_label
  _atom_site_symmetry_multiplicity
  _atom_site_fract_x
  _atom_site_fract_y
  _atom_site_fract_z
  _atom_site_occupancy
  Mg  Mg1       1.0  0.3962746852529508  0.6570110784518235  0.7967977182047591  1.0000
  Mg  Mg2       1.0  0.85763625338157  0.21926567453398618  0.39054348121037014  1.0000
  C   C1        1.0  0.23777036374294602  0.6166060564384326  0.4778352985101073  1.0000
  C   C2        1.0  0.12112408576852036  0.7594968423001697  0.3216004056066664  1.0000
  C   C3        1.0  0.08250352796163644  0.6749384220432204  0.6482579542148765  1.0000
  C   C4        1.0  0.20753074903168356  0.7658422675669957  0.11659056218732998  1.0000
  C   C5        1.0  0.49743256012094017  0.5148797239802301  0.42972632105347913  1.0000
  C   C6        1.0  0.5462692352341931  0.9250974409179554  0.5077950881415519  1.0000
  C   C7        1.0  0.17327816909617066  0.1364380132222999  0.6100046580383363  1.0000
  C   C8        1.0  0.40239680282586565  0.13363436307647172  0.1416568581018156  1.0000
  O   O1        1.0  0.5520155763819733  0.4275587250574817  0.6193943552488357  1.0000
  O   O2        1.0  0.5506148897795766  0.08150216001692878  0.48485792013211837  1.0000
  O   O3        1.0  0.1427727573226789  0.9903683912366535  0.6180996521776978  1.0000
  O   O4        1.0  0.5811337054587353  0.01895505660021073  0.10354227004780325  1.0000
  O   O5        1.0  0.6414587857403075  0.49839484439044734  0.27449443402674784  1.0000
  O   O6        1.0  0.25816343121904967  0.594414062930227  0.09195592070102142  1.0000
  O   O7        1.0  0.15974073071464853  0.30659436965085113  0.5666052047795717  1.0000
  O   O8        1.0  0.2349234009776989  0.2574661341228952  0.20165413379919794  1.0000
  O   O9        1.0  0.9560781318729191  0.715798820738771  0.8031238922386151  1.0000
  O   O10       1.0  0.24622224357596875  0.9306674365295199  0.9318206846665342  1.0000
  O   O11       1.0  0.022620431273570475  0.9755058675701784  0.32144582013616385  1.0000
  O   O12       1.0  0.5905858688437369  0.7602493659325693  0.49138616821321907  1.0000
data_image71
_chemical_formula_structural       Mg2C8O12
_chemical_formula_sum              "Mg2 C8 O12"
_cell_length_a       7.872530813609877
_cell_length_b       7.872530813609877
_cell_length_c       7.368803275525341
_cell_angle_alpha    62.34925540174321
_cell_angle_beta     62.34925540174321
_cell_angle_gamma    54.72736521231912

_space_group_name_H-M_alt    "P 1"
_space_group_IT_number       1

loop_
  _space_group_symop_operation_xyz
  'x, y, z'

loop_
  _atom_site_type_symbol
  _atom_site_label
  _atom_site_symmetry_multiplicity
  _atom_site_fract_x
  _atom_site_fract_y
  _atom_site_fract_z
  _atom_site_occupancy
  Mg  Mg1       1.0  0.41272242803983733  0.5805800475215057  0.8081721448548472  1.0000
  Mg  Mg2       1.0  0.8973807458019243  0.23319125001499308  0.3399801521483583  1.0000
  C   C1        1.0  0.27526398059471185  0.6986718797379986  0.4339982881077096  1.0000
  C   C2        1.0  0.1780780690012692  0.8447994027607909  0.2686029102314274  1.0000
  C   C3        1.0  0.1151902235504817  0.7217773889054585  0.6161531544200207  1.0000
  C   C4        1.0  0.25878920059385846  0.7521744654242027  0.08609132939716345  1.0000
  C   C5        1.0  0.5199976668813643  0.47963681767240385  0.45875122759782394  1.0000
  C   C6        1.0  0.650779546117795  0.8281234831128884  0.5771366976021886  1.0000
  C   C7        1.0  0.0006088784776894229  0.21192150178160715  0.674282976386945  1.0000
  C   C8        1.0  0.3877028868666375  0.19442025965581483  0.08737393549679662  1.0000
  O   O1        1.0  0.5611629972477543  0.35295808017741254  0.6473226621735629  1.0000
  O   O2        1.0  0.6246185278474634  0.005197544898978057  0.5421875090022702  1.0000
  O   O3        1.0  0.9061934275387399  0.1256520855587304  0.7072736020725388  1.0000
  O   O4        1.0  0.5458773445972976  0.23059653123316262  0.9937489733852157  1.0000
  O   O5        1.0  0.6097372544040136  0.46678459035696607  0.2713018642493741  1.0000
  O   O6        1.0  0.19431409602617403  0.6080703612402831  0.13458925862387466  1.0000
  O   O7        1.0  0.07882685714265897  0.3308162168036674  0.6295106685625316  1.0000
  O   O8        1.0  0.20128182336569284  0.24782170800661873  0.10550690341864288  1.0000
  O   O9        1.0  0.016888623806962766  0.6694942746474448  0.7738086611152909  1.0000
  O   O10       1.0  0.35851848809123593  0.8177575760008784  0.8907641268717408  1.0000
  O   O11       1.0  0.9804434070808915  0.9891927443226475  0.3254314616802999  1.0000
  O   O12       1.0  0.6841013302588432  0.654443023465695  0.5842128939429315  1.0000
data_image72
_chemical_formula_structural       Mg2C8O12
_chemical_formula_sum              "Mg2 C8 O12"
_cell_length_a       7.872530813609877
_cell_length_b       7.872530813609877
_cell_length_c       7.368803275525341
_cell_angle_alpha    62.34925540174321
_cell_angle_beta     62.34925540174321
_cell_angle_gamma    54.72736521231912

_space_group_name_H-M_alt    "P 1"
_space_group_IT_number       1

loop_
  _space_group_symop_operation_xyz
  'x, y, z'

loop_
  _atom_site_type_symbol
  _atom_site_label
  _atom_site_symmetry_multiplicity
  _atom_site_fract_x
  _atom_site_fract_y
  _atom_site_fract_z
  _atom_site_occupancy
  Mg  Mg1       1.0  0.5041100657528659  0.5389250309558399  0.7351251261522923  1.0000
  Mg  Mg2       1.0  0.8749518506075047  0.2219493936088983  0.30842997188490684  1.0000
  C   C1        1.0  0.27832827271619065  0.6860606025017048  0.4341100623265116  1.0000
  C   C2        1.0  0.17819223187657057  0.8012878537743483  0.2787722726558495  1.0000
  C   C3        1.0  0.11881108822795161  0.7106716611925694  0.6367934308967315  1.0000
  C   C4        1.0  0.22508478162843734  0.7292758094213961  0.07683519486521914  1.0000
  C   C5        1.0  0.5286554743157041  0.5500519802956548  0.35867918666269977  1.0000
  C   C6        1.0  0.6017559137899273  0.8877340867460461  0.5991469519540402  1.0000
  C   C7        1.0  0.05726410490261902  0.1591061640907121  0.7730109750564947  1.0000
  C   C8        1.0  0.311914883759805  0.24042077870913514  0.162439584694009  1.0000
  O   O1        1.0  0.6258430643756088  0.38456901130371934  0.5274056445063824  1.0000
  O   O2        1.0  0.521925885396672  0.026266489517336566  0.6688799176530609  1.0000
  O   O3        1.0  0.004272454806620862  0.05758395421625392  0.7493210564514573  1.0000
  O   O4        1.0  0.5038832328555193  0.18799193364828115  0.13555326937130174  1.0000
  O   O5        1.0  0.6698069552419172  0.5174542127792707  0.1663797537070524  1.0000
  O   O6        1.0  0.11415520271501323  0.7054642180768358  0.024543590206835258  1.0000
  O   O7        1.0  0.08908010855822084  0.29330746495120463  0.7697882644325805  1.0000
  O   O8        1.0  0.20073365517763994  0.24166654376488572  0.10883866564521383  1.0000
  O   O9        1.0  0.9489781338064255  0.7576605445911114  0.7576359173345616  1.0000
  O   O10       1.0  0.4145749478558412  0.6989019880834381  0.9292775541038725  1.0000
  O   O11       1.0  0.9508647100506408  0.9384596090553667  0.32407663635192646  1.0000
  O   O12       1.0  0.6769489529790123  0.7442581321676903  0.5154067281390463  1.0000
data_image73
_chemical_formula_structural       Mg2C8O12
_chemical_formula_sum              "Mg2 C8 O12"
_cell_length_a       7.872530813609877
_cell_length_b       7.872530813609877
_cell_length_c       7.368803275525341
_cell_angle_alpha    62.34925540174321
_cell_angle_beta     62.34925540174321
_cell_angle_gamma    54.72736521231912

_space_group_name_H-M_alt    "P 1"
_space_group_IT_number       1

loop_
  _space_group_symop_operation_xyz
  'x, y, z'

loop_
  _atom_site_type_symbol
  _atom_site_label
  _atom_site_symmetry_multiplicity
  _atom_site_fract_x
  _atom_site_fract_y
  _atom_site_fract_z
  _atom_site_occupancy
  Mg  Mg1       1.0  0.49777507497368195  0.5292901608382645  0.7059167476708031  1.0000
  Mg  Mg2       1.0  0.9301195347326061  0.18144968108730689  0.4006258191005128  1.0000
  C   C1        1.0  0.28805204155898184  0.6412826854798064  0.43634460408583514  1.0000
  C   C2        1.0  0.1877724944157102  0.7525469045781719  0.2681665215147524  1.0000
  C   C3        1.0  0.14594153463080917  0.6816877457065366  0.6303076674394853  1.0000
  C   C4        1.0  0.24092455015802983  0.6716173850713376  0.0938553226138241  1.0000
  C   C5        1.0  0.5667922780836925  0.4939143642802255  0.3803617848731937  1.0000
  C   C6        1.0  0.6166435721425327  0.8593285521568034  0.5191762511940903  1.0000
  C   C7        1.0  0.9936270316267929  0.27969153410061137  0.7947906927155887  1.0000
  C   C8        1.0  0.29329669780414347  0.31801641821993104  0.15511398992940273  1.0000
  O   O1        1.0  0.6250093968605427  0.3253008695979663  0.564817981755662  1.0000
  O   O2        1.0  0.4763546089598898  0.008864811964697461  0.5875519106516771  1.0000
  O   O3        1.0  0.9410118062135617  0.2362525296936796  0.7046471895437305  1.0000
  O   O4        1.0  0.4903335748382784  0.2592808339404792  0.06225741136189611  1.0000
  O   O5        1.0  0.6847496766218192  0.46359909574219366  0.21432845777645465  1.0000
  O   O6        1.0  0.16165240922133672  0.5702744543640967  0.06729257108826471  1.0000
  O   O7        1.0  0.03447273960191166  0.3558155837771883  0.852480019968118  1.0000
  O   O8        1.0  0.1499363233864553  0.2620732528841956  0.2645080282652075  1.0000
  O   O9        1.0  0.9765962951946534  0.8099316399578073  0.6928035049525653  1.0000
  O   O10       1.0  0.3918895479882661  0.7095981984131811  0.9053361704956789  1.0000
  O   O11       1.0  0.0042639409803082885  0.9364463864443409  0.2757741662936414  1.0000
  O   O12       1.0  0.6853973389317991  0.7427359511843313  0.4221792909987735  1.0000
data_image74
_chemical_formula_structural       Mg2C8O12
_chemical_formula_sum              "Mg2 C8 O12"
_cell_length_a       7.872530813609877
_cell_length_b       7.872530813609877
_cell_length_c       7.368803275525341
_cell_angle_alpha    62.34925540174321
_cell_angle_beta     62.34925540174321
_cell_angle_gamma    54.72736521231912

_space_group_name_H-M_alt    "P 1"
_space_group_IT_number       1

loop_
  _space_group_symop_operation_xyz
  'x, y, z'

loop_
  _atom_site_type_symbol
  _atom_site_label
  _atom_site_symmetry_multiplicity
  _atom_site_fract_x
  _atom_site_fract_y
  _atom_site_fract_z
  _atom_site_occupancy
  Mg  Mg1       1.0  0.5385290377512714  0.4174001811310545  0.8497634752834241  1.0000
  Mg  Mg2       1.0  0.8588154860970152  0.1882330468326072  0.3968134233354033  1.0000
  C   C1        1.0  0.32069361443256644  0.6857074384628002  0.4142797319227802  1.0000
  C   C2        1.0  0.19147710027005874  0.7890636081527889  0.24069000376452396  1.0000
  C   C3        1.0  0.24060243719471575  0.7549390211661793  0.5801005242672185  1.0000
  C   C4        1.0  0.26521684598786927  0.7072524693594637  0.03799565439629589  1.0000
  C   C5        1.0  0.5053775955596438  0.43529610674373553  0.4593156720724485  1.0000
  C   C6        1.0  0.6182748824488709  0.8828265143224827  0.39315626553547844  1.0000
  C   C7        1.0  0.9604430399064035  0.3446726474505119  0.7677990355939286  1.0000
  C   C8        1.0  0.23677633196312436  0.2733679959020276  0.16627373635532372  1.0000
  O   O1        1.0  0.5945908248820857  0.31305355588760514  0.6201583340544632  1.0000
  O   O2        1.0  0.5417441624922075  0.010808494025095872  0.48310898613022724  1.0000
  O   O3        1.0  0.8320721508163014  0.28367011257221975  0.8197545202156227  1.0000
  O   O4        1.0  0.4490924114157563  0.19653236522996637  0.08200967789159064  1.0000
  O   O5        1.0  0.5778911780925848  0.3569111728196624  0.3072725630949731  1.0000
  O   O6        1.0  0.16906870960414316  0.603551965927887  0.07516450554409451  1.0000
  O   O7        1.0  0.1567473194036293  0.2819532368856081  0.7399019641022545  1.0000
  O   O8        1.0  0.10089036365294174  0.28308641660580824  0.35242244114605903  1.0000
  O   O9        1.0  0.08162532306687176  0.8916877223955674  0.6765073849796311  1.0000
  O   O10       1.0  0.3914066682173441  0.7635135675653701  0.8883455869399876  1.0000
  O   O11       1.0  0.08574090620710632  0.9905677274186766  0.16882017969224494  1.0000
  O   O12       1.0  0.6846067429315474  0.7330437960653449  0.3500055677296154  1.0000
data_image75
_chemical_formula_structural       Mg2C8O12
_chemical_formula_sum              "Mg2 C8 O12"
_cell_length_a       7.872530813609877
_cell_length_b       7.872530813609877
_cell_length_c       7.368803275525341
_cell_angle_alpha    62.34925540174321
_cell_angle_beta     62.34925540174321
_cell_angle_gamma    54.72736521231912

_space_group_name_H-M_alt    "P 1"
_space_group_IT_number       1

loop_
  _space_group_symop_operation_xyz
  'x, y, z'

loop_
  _atom_site_type_symbol
  _atom_site_label
  _atom_site_symmetry_multiplicity
  _atom_site_fract_x
  _atom_site_fract_y
  _atom_site_fract_z
  _atom_site_occupancy
  Mg  Mg1       1.0  0.45943505813086183  0.4377864556546953  0.9051885419408684  1.0000
  Mg  Mg2       1.0  0.8931122167884693  0.0768296300907024  0.49168188901947874  1.0000
  C   C1        1.0  0.2873749662856831  0.7250313669030085  0.4299382932876349  1.0000
  C   C2        1.0  0.188343164114642  0.7862616439104932  0.27849646033595105  1.0000
  C   C3        1.0  0.20302935246126194  0.8646130453755089  0.5503714085984676  1.0000
  C   C4        1.0  0.3164301926164181  0.6634966336780741  0.11163013779066486  1.0000
  C   C5        1.0  0.484329230823884  0.43910758393309296  0.5064179833944239  1.0000
  C   C6        1.0  0.6604074212361621  0.8832698646424556  0.26463635554994847  1.0000
  C   C7        1.0  0.9878961592540247  0.3429034501070067  0.7288562099578884  1.0000
  C   C8        1.0  0.1547465576594767  0.28079747888033374  0.13867359082102992  1.0000
  O   O1        1.0  0.5221243408842933  0.40467246137364077  0.6631828382825729  1.0000
  O   O2        1.0  0.5476838787389637  0.9156639440751  0.42580792846013404  1.0000
  O   O3        1.0  0.8491358247765237  0.3054504486127144  0.7413173418560082  1.0000
  O   O4        1.0  0.3299555072626243  0.17426856191547904  0.03791440847823946  1.0000
  O   O5        1.0  0.6146708724580894  0.34704678548798623  0.3554992040650469  1.0000
  O   O6        1.0  0.2424495777413952  0.5576833827092303  0.12037780222657557  1.0000
  O   O7        1.0  0.08403473216699411  0.4363551007375996  0.6726888281127271  1.0000
  O   O8        1.0  0.025278087680026987  0.30912282986695616  0.29044415090793674  1.0000
  O   O9        1.0  0.22672018751283085  0.8599051679310454  0.7026264054894992  1.0000
  O   O10       1.0  0.5111612753428395  0.6290805528621496  0.035855651861190184  1.0000
  O   O11       1.0  0.021436288778221985  0.9692688437641899  0.2111311997582566  1.0000
  O   O12       1.0  0.801401754675928  0.8558269605379234  0.11396814016761041  1.0000
data_image76
_chemical_formula_structural       Mg2C8O12
_chemical_formula_sum              "Mg2 C8 O12"
_cell_length_a       7.872530813609877
_cell_length_b       7.872530813609877
_cell_length_c       7.368803275525341
_cell_angle_alpha    62.34925540174321
_cell_angle_beta     62.34925540174321
_cell_angle_gamma    54.72736521231912

_space_group_name_H-M_alt    "P 1"
_space_group_IT_number       1

loop_
  _space_group_symop_operation_xyz
  'x, y, z'

loop_
  _atom_site_type_symbol
  _atom_site_label
  _atom_site_symmetry_multiplicity
  _atom_site_fract_x
  _atom_site_fract_y
  _atom_site_fract_z
  _atom_site_occupancy
  Mg  Mg1       1.0  0.3931205055281306  0.4633366122279624  0.932599999027616  1.0000
  Mg  Mg2       1.0  0.8109886547872083  0.12864570712854403  0.457315714494824  1.0000
  C   C1        1.0  0.3042405818970553  0.6583928812797077  0.5144555277918622  1.0000
  C   C2        1.0  0.21973809157277213  0.7503750206875126  0.31792447337513674  1.0000
  C   C3        1.0  0.3423691376450909  0.74081532351813  0.6174548004448276  1.0000
  C   C4        1.0  0.32613139485251774  0.6468984057709274  0.15488083498518207  1.0000
  C   C5        1.0  0.44990552340142487  0.39594879979068887  0.5132651960848984  1.0000
  C   C6        1.0  0.7846524103966686  0.9022446760085642  0.027441401191856007  1.0000
  C   C7        1.0  0.9506458811496907  0.4068927430790108  0.7368824445461839  1.0000
  C   C8        1.0  0.14600394395464775  0.23452266899560226  0.3078241786682112  1.0000
  O   O1        1.0  0.5113592415153874  0.2967840273736936  0.69537596604718  1.0000
  O   O2        1.0  0.7070633197719953  0.9042541830025356  0.2090365322575206  1.0000
  O   O3        1.0  0.9148354548645827  0.2570166132969823  0.784357072249763  1.0000
  O   O4        1.0  0.33863619352655944  0.20461444942037443  0.1566889396605189  1.0000
  O   O5        1.0  0.5362744677999016  0.28319956016177483  0.3902705037539299  1.0000
  O   O6        1.0  0.21747414536990667  0.5618827295058058  0.1897282090265469  1.0000
  O   O7        1.0  0.9879962022328115  0.5414880668167497  0.7234815607060502  1.0000
  O   O8        1.0  0.9538201117467485  0.3858772768068688  0.3539494273405803  1.0000
  O   O9        1.0  0.27979323436825654  0.9319471419499832  0.5977577734657147  1.0000
  O   O10       1.0  0.49144964127644547  0.6307809904737459  0.9994794890781045  1.0000
  O   O11       1.0  0.04187491814959609  0.9137797848704523  0.31537272738178995  1.0000
  O   O12       1.0  0.8387427727459464  0.9223701771644319  0.8304577851599727  1.0000
data_image77
_chemical_formula_structural       Mg2C8O12
_chemical_formula_sum              "Mg2 C8 O12"
_cell_length_a       7.872530813609877
_cell_length_b       7.872530813609877
_cell_length_c       7.368803275525341
_cell_angle_alpha    62.34925540174321
_cell_angle_beta     62.34925540174321
_cell_angle_gamma    54.72736521231912

_space_group_name_H-M_alt    "P 1"
_space_group_IT_number       1

loop_
  _space_group_symop_operation_xyz
  'x, y, z'

loop_
  _atom_site_type_symbol
  _atom_site_label
  _atom_site_symmetry_multiplicity
  _atom_site_fract_x
  _atom_site_fract_y
  _atom_site_fract_z
  _atom_site_occupancy
  Mg  Mg1       1.0  0.34092526945938495  0.4987049007190226  0.9358637928399314  1.0000
  Mg  Mg2       1.0  0.8417912954822646  0.10706374210643149  0.5344819064092917  1.0000
  C   C1        1.0  0.3029571558136946  0.6352031410601339  0.4996966591612536  1.0000
  C   C2        1.0  0.19703239557573332  0.7277798913470227  0.33747828676089164  1.0000
  C   C3        1.0  0.36042773947536866  0.7462834835059394  0.5713232782010725  1.0000
  C   C4        1.0  0.3052398634210901  0.6711196498504242  0.1095315624020319  1.0000
  C   C5        1.0  0.4725824222369398  0.40895024570101357  0.5175312307749889  1.0000
  C   C6        1.0  0.7417512576358716  0.9849021208631054  0.8850474102663981  1.0000
  C   C7        1.0  0.042922197330992784  0.2463353923353512  0.8600428594627173  1.0000
  C   C8        1.0  0.06042335030271043  0.37111137755891493  0.28705240636611196  1.0000
  O   O1        1.0  0.5514401239975616  0.31198505187706044  0.6886642811788393  1.0000
  O   O2        1.0  0.5838035554342913  0.9861052071536507  0.04594436630428811  1.0000
  O   O3        1.0  0.03171579766478305  0.09409853064804313  0.9109066381365324  1.0000
  O   O4        1.0  0.15037603408973443  0.35033742224348435  0.11398975891864538  1.0000
  O   O5        1.0  0.5645716289688902  0.2957698850588878  0.38444119723420583  1.0000
  O   O6        1.0  0.14137869528686628  0.723218828225277  0.041758898471795626  1.0000
  O   O7        1.0  0.016758398132305466  0.4164597319462371  0.8468044835915907  1.0000
  O   O8        1.0  0.9459456216264169  0.3289001368543345  0.4516363569312909  1.0000
  O   O9        1.0  0.37918520515745135  0.9028997945034367  0.5257712532809443  1.0000
  O   O10       1.0  0.4943738238025885  0.5769333072704995  0.050269397868119035  1.0000
  O   O11       1.0  0.06407133572632666  0.908727183151257  0.3398277594969228  1.0000
  O   O12       1.0  0.9570906293971992  0.8785911744283658  0.8120061265393415  1.0000
data_image78
_chemical_formula_structural       Mg2C8O12
_chemical_formula_sum              "Mg2 C8 O12"
_cell_length_a       7.872530813609877
_cell_length_b       7.872530813609877
_cell_length_c       7.368803275525341
_cell_angle_alpha    62.34925540174321
_cell_angle_beta     62.34925540174321
_cell_angle_gamma    54.72736521231912

_space_group_name_H-M_alt    "P 1"
_space_group_IT_number       1

loop_
  _space_group_symop_operation_xyz
  'x, y, z'

loop_
  _atom_site_type_symbol
  _atom_site_label
  _atom_site_symmetry_multiplicity
  _atom_site_fract_x
  _atom_site_fract_y
  _atom_site_fract_z
  _atom_site_occupancy
  Mg  Mg1       1.0  0.376160866862637  0.43536926846881263  0.9542814924067804  1.0000
  Mg  Mg2       1.0  0.8472744265903276  0.04575260011738698  0.4758441151089185  1.0000
  C   C1        1.0  0.41305169738908226  0.6557964242423608  0.41174972564919327  1.0000
  C   C2        1.0  0.2905088004453686  0.753966946402765  0.26722729587221206  1.0000
  C   C3        1.0  0.43259605411475  0.7890748326449636  0.4913354598008892  1.0000
  C   C4        1.0  0.3416964719747268  0.6828679304690377  0.05566211195509124  1.0000
  C   C5        1.0  0.5282565211712058  0.4166039483794512  0.5060764322691548  1.0000
  C   C6        1.0  0.5860379757998864  0.02429956869877703  0.9990943681175897  1.0000
  C   C7        1.0  0.0030944443634515206  0.3459606877920621  0.8115174484567277  1.0000
  C   C8        1.0  0.9839866721335002  0.34953324819154075  0.38155446064468435  1.0000
  O   O1        1.0  0.5443033688637788  0.2721821453946336  0.7059698209065446  1.0000
  O   O2        1.0  0.452844849400744  0.10074566323857259  0.13824464204065823  1.0000
  O   O3        1.0  0.8955080240871421  0.25572208060927976  0.9306481074996676  1.0000
  O   O4        1.0  0.0458640953261923  0.3680462224159043  0.201573925226747  1.0000
  O   O5        1.0  0.5817914684792957  0.3097588129438555  0.3805020582750852  1.0000
  O   O6        1.0  0.18978099708944632  0.6917791619287333  0.016329764832998233  1.0000
  O   O7        1.0  0.17024088265620088  0.3463123168474386  0.7279929612243763  1.0000
  O   O8        1.0  0.9850454987648739  0.22744052155156802  0.5643546090420817  1.0000
  O   O9        1.0  0.5084657659574845  0.8392653994766848  0.547994438210227  1.0000
  O   O10       1.0  0.5249821703737707  0.5668499093909161  0.9727207913044068  1.0000
  O   O11       1.0  0.12506272530232793  0.9433347477982236  0.28019567885891355  1.0000
  O   O12       1.0  0.7231934588676656  0.8727400062236323  0.9147286145435517  1.0000
data_image79
_chemical_formula_structural       Mg2C8O12
_chemical_formula_sum              "Mg2 C8 O12"
_cell_length_a       7.872530813609877
_cell_length_b       7.872530813609877
_cell_length_c       7.368803275525341
_cell_angle_alpha    62.34925540174321
_cell_angle_beta     62.34925540174321
_cell_angle_gamma    54.72736521231912

_space_group_name_H-M_alt    "P 1"
_space_group_IT_number       1

loop_
  _space_group_symop_operation_xyz
  'x, y, z'

loop_
  _atom_site_type_symbol
  _atom_site_label
  _atom_site_symmetry_multiplicity
  _atom_site_fract_x
  _atom_site_fract_y
  _atom_site_fract_z
  _atom_site_occupancy
  Mg  Mg1       1.0  0.2860278497993975  0.4718777584933872  0.9030541693742147  1.0000
  Mg  Mg2       1.0  0.8245440241585582  0.035706693243601186  0.5453315138764729  1.0000
  C   C1        1.0  0.41588578484725963  0.6827958503775122  0.39340274512258117  1.0000
  C   C2        1.0  0.2562834930655898  0.7375639628892603  0.28886579762879844  1.0000
  C   C3        1.0  0.40484177477682914  0.8283451344409986  0.43569588803670184  1.0000
  C   C4        1.0  0.3336105794450072  0.7129913754175832  0.07148162465242441  1.0000
  C   C5        1.0  0.5049408589758189  0.4465908296261885  0.49306496244392917  1.0000
  C   C6        1.0  0.6795728709206126  0.9690532325782153  0.06701811226081567  1.0000
  C   C7        1.0  0.017400656156056904  0.3199176131663546  0.7725617443895667  1.0000
  C   C8        1.0  0.07892963432784726  0.23567534427782288  0.37207706921687356  1.0000
  O   O1        1.0  0.5107889574028142  0.370728956142744  0.6894699770714453  1.0000
  O   O2        1.0  0.5435087646861378  0.14595611778705275  0.07495246729273186  1.0000
  O   O3        1.0  0.9515855191000482  0.19679241186477864  0.8549037441908925  1.0000
  O   O4        1.0  0.17731326112124168  0.3109770196833693  0.22539606774002685  1.0000
  O   O5        1.0  0.5963685135934019  0.3166046032942871  0.3896590248309425  1.0000
  O   O6        1.0  0.16987344859178918  0.7287316426837263  0.035684197181849314  1.0000
  O   O7        1.0  0.11434039785269155  0.41561561796192953  0.68605769370225  1.0000
  O   O8        1.0  0.022755549972465178  0.1322604672143306  0.5381185910957738  1.0000
  O   O9        1.0  0.39717300193281124  0.9118689485273245  0.5307280865824818  1.0000
  O   O10       1.0  0.5016310263889535  0.6905918556447175  0.9358844458301621  1.0000
  O   O11       1.0  0.05283005053740098  0.8124070377640398  0.35892891979393154  1.0000
  O   O12       1.0  0.7976785898330752  0.7848384756066684  0.055831305458502026  1.0000
data_image80
_chemical_formula_structural       Mg2C8O12
_chemical_formula_sum              "Mg2 C8 O12"
_cell_length_a       7.872530813609877
_cell_length_b       7.872530813609877
_cell_length_c       7.368803275525341
_cell_angle_alpha    62.34925540174321
_cell_angle_beta     62.34925540174321
_cell_angle_gamma    54.72736521231912

_space_group_name_H-M_alt    "P 1"
_space_group_IT_number       1

loop_
  _space_group_symop_operation_xyz
  'x, y, z'

loop_
  _atom_site_type_symbol
  _atom_site_label
  _atom_site_symmetry_multiplicity
  _atom_site_fract_x
  _atom_site_fract_y
  _atom_site_fract_z
  _atom_site_occupancy
  Mg  Mg1       1.0  0.20753876779618907  0.5160539120033392  0.9214908503357261  1.0000
  Mg  Mg2       1.0  0.8367873953652933  0.06173222332616094  0.41422725883852873  1.0000
  C   C1        1.0  0.3397415711659454  0.6481158888578997  0.42416540696214317  1.0000
  C   C2        1.0  0.22725479803336185  0.7303191847157586  0.26607835991312556  1.0000
  C   C3        1.0  0.4204650562744911  0.7929382294898397  0.3876690820836661  1.0000
  C   C4        1.0  0.3216093126680946  0.7555281383299293  0.04306623775956548  1.0000
  C   C5        1.0  0.4433251281296595  0.41200660668406247  0.5395066266357227  1.0000
  C   C6        1.0  0.7087717890486911  0.953609737645277  0.08580237220818399  1.0000
  C   C7        1.0  0.028000397933333865  0.33887221114480265  0.879049295160373  1.0000
  C   C8        1.0  0.1228528376591154  0.20064273515336342  0.40718501009249564  1.0000
  O   O1        1.0  0.4887490413779567  0.37792492615039996  0.7149425698904129  1.0000
  O   O2        1.0  0.5387186514204092  0.1018894845955518  0.09426008394154617  1.0000
  O   O3        1.0  0.015037195507696222  0.16770064841822174  0.9917763222815993  1.0000
  O   O4        1.0  0.1133043656146803  0.35928705330672117  0.24107424808521105  1.0000
  O   O5        1.0  0.5485787231405644  0.28912515597653876  0.413728587514338  1.0000
  O   O6        1.0  0.2686667094299702  0.7264853885786942  0.9152932765587617  1.0000
  O   O7        1.0  0.06406476902427484  0.49512001471875305  0.7421925068442004  1.0000
  O   O8        1.0  0.9986824013782923  0.09752108374520163  0.524380730811  1.0000
  O   O9        1.0  0.5699851700676402  0.7246879422303336  0.460624395176955  1.0000
  O   O10       1.0  0.4614745521252908  0.8238228203482733  0.9747742432203313  1.0000
  O   O11       1.0  0.03864191378872393  0.8175457103843444  0.2981726930967005  1.0000
  O   O12       1.0  0.8901215486717939  0.8059435367493952  0.07088263565441534  1.0000
data_image81
_chemical_formula_structural       Mg2C8O12
_chemical_formula_sum              "Mg2 C8 O12"
_cell_length_a       7.872530813609877
_cell_length_b       7.872530813609877
_cell_length_c       7.368803275525341
_cell_angle_alpha    62.34925540174321
_cell_angle_beta     62.34925540174321
_cell_angle_gamma    54.72736521231912

_space_group_name_H-M_alt    "P 1"
_space_group_IT_number       1

loop_
  _space_group_symop_operation_xyz
  'x, y, z'

loop_
  _atom_site_type_symbol
  _atom_site_label
  _atom_site_symmetry_multiplicity
  _atom_site_fract_x
  _atom_site_fract_y
  _atom_site_fract_z
  _atom_site_occupancy
  Mg  Mg1       1.0  0.1887941462970214  0.5979774058624527  0.9466328310303761  1.0000
  Mg  Mg2       1.0  0.8501753158550635  0.028460257867265668  0.3824841586670172  1.0000
  C   C1        1.0  0.4071715846791911  0.5677192909220273  0.42328021251357795  1.0000
  C   C2        1.0  0.24527472101002132  0.7219272727822869  0.2792745884380039  1.0000
  C   C3        1.0  0.49859918585818863  0.6578382275737523  0.4285751069992959  1.0000
  C   C4        1.0  0.3883521081908617  0.7664326209693959  0.019561498344800577  1.0000
  C   C5        1.0  0.4049998033852418  0.3765743600073067  0.5805405277135925  1.0000
  C   C6        1.0  0.7058416525813402  0.037619337616980664  0.921432963014664  1.0000
  C   C7        1.0  0.8410668765453765  0.42293970370828243  0.05273379752350604  1.0000
  C   C8        1.0  0.18435204482334686  0.1660895420918553  0.3301840299430996  1.0000
  O   O1        1.0  0.3042350377142916  0.3770618390374675  0.770446421297433  1.0000
  O   O2        1.0  0.6569581396158877  0.018699460529190137  0.0949543532677648  1.0000
  O   O3        1.0  0.9442883783460146  0.2269978591612555  0.03562169302401319  1.0000
  O   O4        1.0  0.257432777329098  0.29853824413991054  0.25360356502144277  1.0000
  O   O5        1.0  0.5268159652280516  0.20294071723914953  0.5065707920291516  1.0000
  O   O6        1.0  0.44540204816460904  0.6109856767403491  0.9291790989720713  1.0000
  O   O7        1.0  0.9268767464028673  0.5620151212793144  0.9667474944600004  1.0000
  O   O8        1.0  0.022635428773628362  0.13092473551803518  0.4562601454996753  1.0000
  O   O9        1.0  0.6236461566398743  0.6943331937319854  0.4135526246933992  1.0000
  O   O10       1.0  0.4371943428335893  0.9189273522664685  0.9461460458516951  1.0000
  O   O11       1.0  0.05882344121745179  0.7522430014483408  0.3131643019999547  1.0000
  O   O12       1.0  0.7514208993469937  0.00476969499619576  0.7636767547714205  1.0000
data_image82
_chemical_formula_structural       Mg2C8O12
_chemical_formula_sum              "Mg2 C8 O12"
_cell_length_a       7.872530813609877
_cell_length_b       7.872530813609877
_cell_length_c       7.368803275525341
_cell_angle_alpha    62.34925540174321
_cell_angle_beta     62.34925540174321
_cell_angle_gamma    54.72736521231912

_space_group_name_H-M_alt    "P 1"
_space_group_IT_number       1

loop_
  _space_group_symop_operation_xyz
  'x, y, z'

loop_
  _atom_site_type_symbol
  _atom_site_label
  _atom_site_symmetry_multiplicity
  _atom_site_fract_x
  _atom_site_fract_y
  _atom_site_fract_z
  _atom_site_occupancy
  Mg  Mg1       1.0  0.20568227112798262  0.5922805780343533  0.8210555041703496  1.0000
  Mg  Mg2       1.0  0.806124638109047  0.03300247126180644  0.47180355155040754  1.0000
  C   C1        1.0  0.37446722878907296  0.5776949535757465  0.43788477436433515  1.0000
  C   C2        1.0  0.22667118389272195  0.6821863435578996  0.3149722495011182  1.0000
  C   C3        1.0  0.46652533960481535  0.7007574202011586  0.3979986778239522  1.0000
  C   C4        1.0  0.33151697886267745  0.7020587526989496  0.07463565559013913  1.0000
  C   C5        1.0  0.4762764753431332  0.35824007375683786  0.5804922089025264  1.0000
  C   C6        1.0  0.8303108987645467  0.013782528295581908  0.9167727412323925  1.0000
  C   C7        1.0  0.8460131117983752  0.4506568611935032  0.005526002310415334  1.0000
  C   C8        1.0  0.1618726491088796  0.18406216156728952  0.32382751068615967  1.0000
  O   O1        1.0  0.472861567948781  0.3744440555097177  0.7424263504171421  1.0000
  O   O2        1.0  0.7119325170888322  0.051806492473107646  0.07946800638566409  1.0000
  O   O3        1.0  0.8369714622417224  0.2853710404388357  0.05515476193411084  1.0000
  O   O4        1.0  0.15784088273887334  0.33494475843693444  0.3145644843108446  1.0000
  O   O5        1.0  0.514200358384625  0.20670921931177863  0.5336237858893431  1.0000
  O   O6        1.0  0.2781386281876946  0.6348421063100634  0.9919181096632009  1.0000
  O   O7        1.0  0.9050748009580272  0.5891826606735856  0.9334731107218396  1.0000
  O   O8        1.0  0.11947001815959317  0.058416389004771974  0.3256306300416463  1.0000
  O   O9        1.0  0.6018766977757053  0.7118769690334961  0.4296578174984238  1.0000
  O   O10       1.0  0.4310351664943432  0.8145858565097782  0.9792878605275278  1.0000
  O   O11       1.0  0.03002316611024585  0.7483393540982018  0.3908938121619047  1.0000
  O   O12       1.0  0.9098983537126577  0.02561848396063151  0.7150761347271367  1.0000
data_image83
_chemical_formula_structural       Mg2C8O12
_chemical_formula_sum              "Mg2 C8 O12"
_cell_length_a       7.872530813609877
_cell_length_b       7.872530813609877
_cell_length_c       7.368803275525341
_cell_angle_alpha    62.34925540174321
_cell_angle_beta     62.34925540174321
_cell_angle_gamma    54.72736521231912

_space_group_name_H-M_alt    "P 1"
_space_group_IT_number       1

loop_
  _space_group_symop_operation_xyz
  'x, y, z'

loop_
  _atom_site_type_symbol
  _atom_site_label
  _atom_site_symmetry_multiplicity
  _atom_site_fract_x
  _atom_site_fract_y
  _atom_site_fract_z
  _atom_site_occupancy
  Mg  Mg1       1.0  0.2245808354536194  0.6648811926137158  0.7890143179005273  1.0000
  Mg  Mg2       1.0  0.8276861854187505  0.9532840945718692  0.5026514714412055  1.0000
  C   C1        1.0  0.42563705334887064  0.5495775418680039  0.4212216675956774  1.0000
  C   C2        1.0  0.25956566706405876  0.6611827251638754  0.3184357423055423  1.0000
  C   C3        1.0  0.49248787655554654  0.6985594380055733  0.3984148481185006  1.0000
  C   C4        1.0  0.33230888813758863  0.7417335481014722  0.06441745435957721  1.0000
  C   C5        1.0  0.5003975153592652  0.38027212566231183  0.5972404446242814  1.0000
  C   C6        1.0  0.767886284180662  0.05648140484901787  0.8883522198218627  1.0000
  C   C7        1.0  0.8971435633494208  0.43364051004535686  0.8749098191399931  1.0000
  C   C8        1.0  0.05833715836385127  0.14451845885778686  0.43874057198556926  1.0000
  O   O1        1.0  0.5043250758071647  0.43347144634840773  0.7512944241197053  1.0000
  O   O2        1.0  0.7609108855788567  0.04284993288485728  0.058197054294232164  1.0000
  O   O3        1.0  0.781930253041826  0.36322969755167817  0.907254565306718  1.0000
  O   O4        1.0  0.12176659534778023  0.21237620850100997  0.47730292990670176  1.0000
  O   O5        1.0  0.5804377430733539  0.19394726816918764  0.5962612760860363  1.0000
  O   O6        1.0  0.22966729941156097  0.7090174157330147  0.9935718671350829  1.0000
  O   O7        1.0  0.005966101389915325  0.5212415701457083  0.8405978465360929  1.0000
  O   O8        1.0  0.9765344545345861  0.14754327104337794  0.32128706503263893  1.0000
  O   O9        1.0  0.5315750634554157  0.797691238023737  0.43897152922791227  1.0000
  O   O10       1.0  0.4618820253358168  0.8070365223941941  0.9605131750545182  1.0000
  O   O11       1.0  0.06660666553986211  0.7185461867545904  0.41283787342247374  1.0000
  O   O12       1.0  0.8711119395142566  0.9036708144160704  0.7730705504437736  1.0000
data_image84
_chemical_formula_structural       Mg2C8O12
_chemical_formula_sum              "Mg2 C8 O12"
_cell_length_a       7.872530813609877
_cell_length_b       7.872530813609877
_cell_length_c       7.368803275525341
_cell_angle_alpha    62.34925540174321
_cell_angle_beta     62.34925540174321
_cell_angle_gamma    54.72736521231912

_space_group_name_H-M_alt    "P 1"
_space_group_IT_number       1

loop_
  _space_group_symop_operation_xyz
  'x, y, z'

loop_
  _atom_site_type_symbol
  _atom_site_label
  _atom_site_symmetry_multiplicity
  _atom_site_fract_x
  _atom_site_fract_y
  _atom_site_fract_z
  _atom_site_occupancy
  Mg  Mg1       1.0  0.20504640202666813  0.5373102774746432  0.9484185410328358  1.0000
  Mg  Mg2       1.0  0.8292923931810291  0.00020828091491464603  0.4526190769877269  1.0000
  C   C1        1.0  0.43622744742983516  0.6246656839048068  0.3603315338471601  1.0000
  C   C2        1.0  0.2520672230044605  0.6950585750918093  0.28798302619060656  1.0000
  C   C3        1.0  0.42725918643899197  0.7048704757408657  0.4892399069414756  1.0000
  C   C4        1.0  0.3244195805675455  0.7886541676401164  0.037402076555760146  1.0000
  C   C5        1.0  0.4706674575997952  0.4140334223753699  0.5188748109764062  1.0000
  C   C6        1.0  0.786342350551164  0.9644201017084367  0.9282277540987482  1.0000
  C   C7        1.0  0.9541495265115054  0.4351643247326404  0.8378806028496745  1.0000
  C   C8        1.0  0.02554846555045211  0.20793702118938287  0.4630343824789567  1.0000
  O   O1        1.0  0.46694652292156336  0.36671552010338804  0.7243954122433961  1.0000
  O   O2        1.0  0.687575921281282  0.007935522675519557  0.09690244793719904  1.0000
  O   O3        1.0  0.8268098500420961  0.3789299602254814  0.8969071748265175  1.0000
  O   O4        1.0  0.08575384981757737  0.30348370118401286  0.4852260372369259  1.0000
  O   O5        1.0  0.5284392410177174  0.264712860254116  0.4301835030372768  1.0000
  O   O6        1.0  0.3007869122730346  0.7153743204420167  0.9271981124789719  1.0000
  O   O7        1.0  0.1186478547960048  0.45048204757169813  0.7801032951906889  1.0000
  O   O8        1.0  0.9760518087998578  0.1573992005058349  0.3818246271327228  1.0000
  O   O9        1.0  0.5460737141791838  0.7303452098518871  0.5136716994147039  1.0000
  O   O10       1.0  0.4373013675484404  0.8945728019495437  0.949548929593361  1.0000
  O   O11       1.0  0.04829790625190009  0.7653905449771988  0.3727598048135141  1.0000
  O   O12       1.0  0.9394091426475415  0.8100660381007756  0.8659477243954647  1.0000
data_image85
_chemical_formula_structural       Mg2C8O12
_chemical_formula_sum              "Mg2 C8 O12"
_cell_length_a       7.872530813609877
_cell_length_b       7.872530813609877
_cell_length_c       7.368803275525341
_cell_angle_alpha    62.34925540174321
_cell_angle_beta     62.34925540174321
_cell_angle_gamma    54.72736521231912

_space_group_name_H-M_alt    "P 1"
_space_group_IT_number       1

loop_
  _space_group_symop_operation_xyz
  'x, y, z'

loop_
  _atom_site_type_symbol
  _atom_site_label
  _atom_site_symmetry_multiplicity
  _atom_site_fract_x
  _atom_site_fract_y
  _atom_site_fract_z
  _atom_site_occupancy
  Mg  Mg1       1.0  0.2948300477419322  0.48098266566556536  0.8783091329342348  1.0000
  Mg  Mg2       1.0  0.6976739634388154  0.9279881350724304  0.687144155625487  1.0000
  C   C1        1.0  0.4556401879574697  0.6391644014677954  0.34078793613657066  1.0000
  C   C2        1.0  0.2733286715699693  0.7477608862519177  0.23506042517266212  1.0000
  C   C3        1.0  0.5305869882427415  0.7510944579573081  0.34323031459716513  1.0000
  C   C4        1.0  0.41190683931620037  0.7103583168701262  0.03501955541321079  1.0000
  C   C5        1.0  0.4710145932178398  0.4197290046223072  0.46746154755908736  1.0000
  C   C6        1.0  0.7283348728191565  0.0012768886525658107  0.9568001213847022  1.0000
  C   C7        1.0  0.8795527392358901  0.4282955167600944  0.9202080323132337  1.0000
  C   C8        1.0  0.05585436110734131  0.24543325511710062  0.4384024893520282  1.0000
  O   O1        1.0  0.5177152704544281  0.33228235393168765  0.6431103351741129  1.0000
  O   O2        1.0  0.6008202462891805  0.05987413246553919  0.1081459944968296  1.0000
  O   O3        1.0  0.7636120148680627  0.3650851121744289  0.9499156851394933  1.0000
  O   O4        1.0  0.1006835787227223  0.30448337611922405  0.5203404317676614  1.0000
  O   O5        1.0  0.5155336778916804  0.3198226917894046  0.34620559382295224  1.0000
  O   O6        1.0  0.3835029450512386  0.6163617607780545  0.954235410124103  1.0000
  O   O7        1.0  0.995258033897521  0.49437729587236245  0.8708374718934255  1.0000
  O   O8        1.0  0.005628955185978513  0.15798090079232985  0.3948031349844585  1.0000
  O   O9        1.0  0.5195486839239662  0.8459310454930141  0.449156035778034  1.0000
  O   O10       1.0  0.5673559288429061  0.746904149499648  0.9326882331723423  1.0000
  O   O11       1.0  0.09053175072447127  0.7752901685069451  0.3375338503277899  1.0000
  O   O12       1.0  0.8706718267581772  0.9382141965077567  0.8087088149044854  1.0000
data_image86
_chemical_formula_structural       Mg2C8O12
_chemical_formula_sum              "Mg2 C8 O12"
_cell_length_a       7.872530813609877
_cell_length_b       7.872530813609877
_cell_length_c       7.368803275525341
_cell_angle_alpha    62.34925540174321
_cell_angle_beta     62.34925540174321
_cell_angle_gamma    54.72736521231912

_space_group_name_H-M_alt    "P 1"
_space_group_IT_number       1

loop_
  _space_group_symop_operation_xyz
  'x, y, z'

loop_
  _atom_site_type_symbol
  _atom_site_label
  _atom_site_symmetry_multiplicity
  _atom_site_fract_x
  _atom_site_fract_y
  _atom_site_fract_z
  _atom_site_occupancy
  Mg  Mg1       1.0  0.2930760852430217  0.44371863692397284  0.9219070155380781  1.0000
  Mg  Mg2       1.0  0.5840274572573247  0.037284322172768884  0.6913424536652288  1.0000
  C   C1        1.0  0.5805539908328751  0.5520162464439549  0.30005087577879774  1.0000
  C   C2        1.0  0.3786224590202561  0.7535537444017106  0.17782861153794938  1.0000
  C   C3        1.0  0.5901607953210328  0.6537446766951626  0.3875872366516213  1.0000
  C   C4        1.0  0.388823611661062  0.73228393768403  0.9550505678681418  1.0000
  C   C5        1.0  0.5771732326815966  0.34232702954160177  0.44603409156172136  1.0000
  C   C6        1.0  0.6700163134319246  0.01920262959876884  0.03017790352083405  1.0000
  C   C7        1.0  0.9456174592900182  0.3607288653941967  0.9387188639329715  1.0000
  C   C8        1.0  0.002020097365819056  0.30907982629613256  0.4157772718009667  1.0000
  O   O1        1.0  0.49164993727714545  0.3284385699115248  0.6744999340322083  1.0000
  O   O2        1.0  0.5686869818482516  0.1288306271886417  0.1443464994589284  1.0000
  O   O3        1.0  0.8136389282381502  0.3086073096829261  0.9773194195571165  1.0000
  O   O4        1.0  0.06516165252633994  0.3689251079282967  0.48277366279237666  1.0000
  O   O5        1.0  0.5842598419363941  0.20394743696600515  0.4058343964759879  1.0000
  O   O6        1.0  0.2706595884897569  0.6270727281100925  0.02223964272696364  1.0000
  O   O7        1.0  0.06307725852760789  0.4370583157722926  0.9077505354922377  1.0000
  O   O8        1.0  0.9538424617935417  0.28134244256890684  0.2963150873260012  1.0000
  O   O9        1.0  0.6338554371220919  0.7317493515235333  0.4415459388276567  1.0000
  O   O10       1.0  0.49047194206226197  0.7901207774635565  0.7813335227338014  1.0000
  O   O11       1.0  0.19952643110264648  0.92948421103418  0.2168900012314376  1.0000
  O   O12       1.0  0.7250711093010047  0.8750128422436237  0.9588796655158577  1.0000
data_image87
_chemical_formula_structural       Mg2C8O12
_chemical_formula_sum              "Mg2 C8 O12"
_cell_length_a       7.872530813609877
_cell_length_b       7.872530813609877
_cell_length_c       7.368803275525341
_cell_angle_alpha    62.34925540174321
_cell_angle_beta     62.34925540174321
_cell_angle_gamma    54.72736521231912

_space_group_name_H-M_alt    "P 1"
_space_group_IT_number       1

loop_
  _space_group_symop_operation_xyz
  'x, y, z'

loop_
  _atom_site_type_symbol
  _atom_site_label
  _atom_site_symmetry_multiplicity
  _atom_site_fract_x
  _atom_site_fract_y
  _atom_site_fract_z
  _atom_site_occupancy
  Mg  Mg1       1.0  0.29164769694485737  0.41181478756567325  0.9492582850736296  1.0000
  Mg  Mg2       1.0  0.5822095141885568  0.9753649667801267  0.6417474940348873  1.0000
  C   C1        1.0  0.4095696833790668  0.6442415771639158  0.37795789689523746  1.0000
  C   C2        1.0  0.34299173447009346  0.7856517902526577  0.18768937854728315  1.0000
  C   C3        1.0  0.516101284966794  0.6988277168060895  0.42898160153284187  1.0000
  C   C4        1.0  0.3577967051904247  0.7290177773043074  0.005413299828805502  1.0000
  C   C5        1.0  0.49317998150827624  0.379113471226837  0.43908496910910716  1.0000
  C   C6        1.0  0.65305868287361  0.9547749416361404  0.9578252551550592  1.0000
  C   C7        1.0  0.006949369776837022  0.3158946759042597  0.954162250456883  1.0000
  C   C8        1.0  0.9953277539515116  0.38763945419611207  0.4962397601142339  1.0000
  O   O1        1.0  0.5142962926204863  0.30404844588785734  0.6434882185925888  1.0000
  O   O2        1.0  0.5533052868010215  0.06992656815020726  0.06842455112378742  1.0000
  O   O3        1.0  0.9685773677651169  0.22393901318838838  0.899623522833665  1.0000
  O   O4        1.0  0.12178077574381677  0.4090051699731758  0.5340500692684282  1.0000
  O   O5        1.0  0.590482581955477  0.2946449970028027  0.3004198215148872  1.0000
  O   O6        1.0  0.3043174009749968  0.5872508753413123  0.058462813851772016  1.0000
  O   O7        1.0  0.05119994092821178  0.42478710953899357  0.953582869448709  1.0000
  O   O8        1.0  0.8994865648465732  0.3674775724489081  0.4259736965926535  1.0000
  O   O9        1.0  0.6199077772787671  0.7714959453932544  0.4290772596079298  1.0000
  O   O10       1.0  0.44194206775828787  0.785873595732974  0.792674665545279  1.0000
  O   O11       1.0  0.2652413863889983  0.004808890738031479  0.12040050960519931  1.0000
  O   O12       1.0  0.8025909802928588  0.7804200110025847  0.9702201195273177  1.0000
data_image88
_chemical_formula_structural       Mg2C8O12
_chemical_formula_sum              "Mg2 C8 O12"
_cell_length_a       7.872530813609877
_cell_length_b       7.872530813609877
_cell_length_c       7.368803275525341
_cell_angle_alpha    62.34925540174321
_cell_angle_beta     62.34925540174321
_cell_angle_gamma    54.72736521231912

_space_group_name_H-M_alt    "P 1"
_space_group_IT_number       1

loop_
  _space_group_symop_operation_xyz
  'x, y, z'

loop_
  _atom_site_type_symbol
  _atom_site_label
  _atom_site_symmetry_multiplicity
  _atom_site_fract_x
  _atom_site_fract_y
  _atom_site_fract_z
  _atom_site_occupancy
  Mg  Mg1       1.0  0.2546381721892584  0.4609484335555666  0.8929945959591508  1.0000
  Mg  Mg2       1.0  0.4493194317630529  0.007994997868081269  0.5932804093798234  1.0000
  C   C1        1.0  0.5466021477193  0.5897629227150626  0.3406304320094253  1.0000
  C   C2        1.0  0.3823946722540985  0.7539954609382996  0.20284479975908812  1.0000
  C   C3        1.0  0.5982448046243939  0.7284144276020206  0.3302231426371049  1.0000
  C   C4        1.0  0.35608137622253966  0.7100910748604504  0.014542141125734138  1.0000
  C   C5        1.0  0.45881939720048615  0.45888811494285703  0.4975176068611559  1.0000
  C   C6        1.0  0.7104788996952001  0.052801748526665415  0.8097162784976824  1.0000
  C   C7        1.0  0.05927325213545642  0.18465093252299838  0.047650054112063245  1.0000
  C   C8        1.0  0.010727555555459308  0.36086570752949515  0.5290314498749265  1.0000
  O   O1        1.0  0.2734543891709338  0.5048556574994395  0.5839009989963485  1.0000
  O   O2        1.0  0.7533607923671566  0.15644786422786594  0.8432819198739221  1.0000
  O   O3        1.0  0.0590802742083818  0.0780519182605623  0.9825360173220624  1.0000
  O   O4        1.0  0.1937564214418994  0.20817634614326475  0.4432625822910228  1.0000
  O   O5        1.0  0.5841232983413399  0.23504752005895785  0.6017687432431164  1.0000
  O   O6        1.0  0.35036945507199785  0.541154711131789  0.05479191827722622  1.0000
  O   O7        1.0  0.09785766058337819  0.32599292255743645  0.009901667616422527  1.0000
  O   O8        1.0  0.8293371372568294  0.4769081394416219  0.6084457629887079  1.0000
  O   O9        1.0  0.6147077920076296  0.850290837212395  0.3656023079851726  1.0000
  O   O10       1.0  0.4079050253256161  0.8102479082798322  0.8309977671528955  1.0000
  O   O11       1.0  0.21283746635603618  0.8916539970732551  0.25174135247780133  1.0000
  O   O12       1.0  0.7532348499439141  0.8628587190868887  0.8363854739357512  1.0000
data_image89
_chemical_formula_structural       Mg2C8O12
_chemical_formula_sum              "Mg2 C8 O12"
_cell_length_a       7.872530813609877
_cell_length_b       7.872530813609877
_cell_length_c       7.368803275525341
_cell_angle_alpha    62.34925540174321
_cell_angle_beta     62.34925540174321
_cell_angle_gamma    54.72736521231912

_space_group_name_H-M_alt    "P 1"
_space_group_IT_number       1

loop_
  _space_group_symop_operation_xyz
  'x, y, z'

loop_
  _atom_site_type_symbol
  _atom_site_label
  _atom_site_symmetry_multiplicity
  _atom_site_fract_x
  _atom_site_fract_y
  _atom_site_fract_z
  _atom_site_occupancy
  Mg  Mg1       1.0  0.45874809534799466  0.30743028845952713  0.8854846046646215  1.0000
  Mg  Mg2       1.0  0.42063914716062634  0.012364670930853656  0.5337323960429917  1.0000
  C   C1        1.0  0.40283551979115584  0.6303490528606536  0.3219837229460482  1.0000
  C   C2        1.0  0.22113400944786338  0.7807818446148298  0.2180579710417111  1.0000
  C   C3        1.0  0.501215329440359  0.7225093291039519  0.3221853389362937  1.0000
  C   C4        1.0  0.34680665079667256  0.7353518897217998  0.9943232787814122  1.0000
  C   C5        1.0  0.3685275563810808  0.478008959755537  0.514132858408978  1.0000
  C   C6        1.0  0.8166455250638254  0.9864458145822587  0.8712288483841233  1.0000
  C   C7        1.0  0.08567835680432379  0.20981929434897514  0.04045216056011336  1.0000
  C   C8        1.0  0.02973292214834401  0.3912720801190662  0.5261927604885268  1.0000
  O   O1        1.0  0.30775154327784404  0.5124035824358586  0.6906654459575879  1.0000
  O   O2        1.0  0.7984100793266404  0.14559078126571756  0.8909593847635966  1.0000
  O   O3        1.0  0.09885225850883272  0.1503451550148738  0.9105361136770899  1.0000
  O   O4        1.0  0.10870188190757954  0.2546991277245814  0.46381126610207146  1.0000
  O   O5        1.0  0.44287528041635515  0.31151871370499  0.47473894486940776  1.0000
  O   O6        1.0  0.4726457557436045  0.5196489797281757  0.9665823839784905  1.0000
  O   O7        1.0  0.019495408618841387  0.31579192066564127  0.14884885243412427  1.0000
  O   O8        1.0  0.9555984584641458  0.5319168681070097  0.5931520207697478  1.0000
  O   O9        1.0  0.5445024791931732  0.8517384467307837  0.32981539027497797  1.0000
  O   O10       1.0  0.431003371833095  0.8491228442165456  0.8424266161569863  1.0000
  O   O11       1.0  0.03614869396940672  0.8430245053034966  0.30656087115282443  1.0000
  O   O12       1.0  0.9088546168611131  0.8113208445838147  0.8694054060859624  1.0000
data_image90
_chemical_formula_structural       Mg2C8O12
_chemical_formula_sum              "Mg2 C8 O12"
_cell_length_a       7.872530813609877
_cell_length_b       7.872530813609877
_cell_length_c       7.368803275525341
_cell_angle_alpha    62.34925540174321
_cell_angle_beta     62.34925540174321
_cell_angle_gamma    54.72736521231912

_space_group_name_H-M_alt    "P 1"
_space_group_IT_number       1

loop_
  _space_group_symop_operation_xyz
  'x, y, z'

loop_
  _atom_site_type_symbol
  _atom_site_label
  _atom_site_symmetry_multiplicity
  _atom_site_fract_x
  _atom_site_fract_y
  _atom_site_fract_z
  _atom_site_occupancy
  Mg  Mg1       1.0  0.4502491314071922  0.3614330538140079  0.8911634105118545  1.0000
  Mg  Mg2       1.0  0.4178418541238125  0.011271226162511269  0.5746500331627453  1.0000
  C   C1        1.0  0.45801637594560685  0.5761924063337132  0.3236499226460136  1.0000
  C   C2        1.0  0.33212804611475844  0.6423648114795126  0.1629249590733661  1.0000
  C   C3        1.0  0.46236875318022164  0.7088257377703984  0.36258981280026065  1.0000
  C   C4        1.0  0.43921178226876545  0.7052774399921489  0.9371065279145253  1.0000
  C   C5        1.0  0.4666260159011544  0.3663560411284571  0.4778375658708861  1.0000
  C   C6        1.0  0.8262460666979563  0.025693137131775012  0.9084381071554459  1.0000
  C   C7        1.0  0.9359145803952459  0.3947635590469336  0.08836897172252645  1.0000
  C   C8        1.0  0.9401622615977623  0.43526190903781914  0.5558202631413915  1.0000
  O   O1        1.0  0.4419883894749228  0.33500221083879267  0.6597194345565522  1.0000
  O   O2        1.0  0.7811021247567789  0.2039396508495397  0.8327332878581355  1.0000
  O   O3        1.0  0.026700165739836024  0.2966604903014696  0.9603442358402832  1.0000
  O   O4        1.0  0.08341587358549768  0.2600908266610489  0.5828155824797645  1.0000
  O   O5        1.0  0.5088175262344461  0.21714130057804465  0.37379398380247236  1.0000
  O   O6        1.0  0.4424335867041964  0.6236332828449241  0.8113972364135412  1.0000
  O   O7        1.0  0.8889843206439589  0.4522200047012229  0.21939633923109847  1.0000
  O   O8        1.0  0.7954420993134612  0.6060010004666421  0.5881822943670916  1.0000
  O   O9        1.0  0.49071747269552524  0.8446009318592695  0.36504503059750765  1.0000
  O   O10       1.0  0.4873925228513842  0.8589389667543496  0.8547042467291232  1.0000
  O   O11       1.0  0.21777427521594428  0.5517510867134426  0.22977911120734762  1.0000
  O   O12       1.0  0.9105651884381321  0.8265114707185097  0.9331795760893066  1.0000
data_image91
_chemical_formula_structural       Mg2C8O12
_chemical_formula_sum              "Mg2 C8 O12"
_cell_length_a       7.872530813609877
_cell_length_b       7.872530813609877
_cell_length_c       7.368803275525341
_cell_angle_alpha    62.34925540174321
_cell_angle_beta     62.34925540174321
_cell_angle_gamma    54.72736521231912

_space_group_name_H-M_alt    "P 1"
_space_group_IT_number       1

loop_
  _space_group_symop_operation_xyz
  'x, y, z'

loop_
  _atom_site_type_symbol
  _atom_site_label
  _atom_site_symmetry_multiplicity
  _atom_site_fract_x
  _atom_site_fract_y
  _atom_site_fract_z
  _atom_site_occupancy
  Mg  Mg1       1.0  0.3647432754304001  0.4408823025142994  0.889126825107364  1.0000
  Mg  Mg2       1.0  0.4282808345275916  0.053486314563743365  0.48777037218258695  1.0000
  C   C1        1.0  0.4942569425115339  0.5476455493117761  0.264237113447287  1.0000
  C   C2        1.0  0.3921790617460667  0.5828945112045453  0.11505796952097185  1.0000
  C   C3        1.0  0.47715877714913996  0.7319717836401287  0.2592080959375489  1.0000
  C   C4        1.0  0.3938438037524486  0.7650290568223876  0.8595123893840944  1.0000
  C   C5        1.0  0.48868443162245934  0.3557727192869446  0.4415608374582158  1.0000
  C   C6        1.0  0.7674755614474607  0.9513715582081235  0.9990405677240806  1.0000
  C   C7        1.0  0.0021795555623724816  0.30237176630699897  0.19171220785581577  1.0000
  C   C8        1.0  0.999903214673816  0.45261606194875187  0.6099154664819408  1.0000
  O   O1        1.0  0.4413819080496405  0.373839761901172  0.6297141792893406  1.0000
  O   O2        1.0  0.6416567468755119  0.15326156849360606  0.9931394931526503  1.0000
  O   O3        1.0  0.12021804347252218  0.30831993855253587  0.024222468916275997  1.0000
  O   O4        1.0  0.12663302266505025  0.2703002383365971  0.6355352353690624  1.0000
  O   O5        1.0  0.6058353611559203  0.1729752111407156  0.3988335343864225  1.0000
  O   O6        1.0  0.302738455869402  0.7850324860712032  0.7366885270674727  1.0000
  O   O7        1.0  0.8783913335246059  0.31897030027579026  0.35776451768011164  1.0000
  O   O8        1.0  0.8788042681814013  0.6026881354412821  0.5128621510982669  1.0000
  O   O9        1.0  0.40911248368506214  0.9189099440784588  0.24739213798720452  1.0000
  O   O10       1.0  0.5021842171748588  0.8845841504709681  0.8031951475787277  1.0000
  O   O11       1.0  0.3123040708340098  0.4567086971242161  0.17897189371015082  1.0000
  O   O12       1.0  0.8519460403694679  0.7703439733225526  0.0835503826158845  1.0000
data_image92
_chemical_formula_structural       Mg2C8O12
_chemical_formula_sum              "Mg2 C8 O12"
_cell_length_a       7.872530813609877
_cell_length_b       7.872530813609877
_cell_length_c       7.368803275525341
_cell_angle_alpha    62.34925540174321
_cell_angle_beta     62.34925540174321
_cell_angle_gamma    54.72736521231912

_space_group_name_H-M_alt    "P 1"
_space_group_IT_number       1

loop_
  _space_group_symop_operation_xyz
  'x, y, z'

loop_
  _atom_site_type_symbol
  _atom_site_label
  _atom_site_symmetry_multiplicity
  _atom_site_fract_x
  _atom_site_fract_y
  _atom_site_fract_z
  _atom_site_occupancy
  Mg  Mg1       1.0  0.29043031647111534  0.48597585764755236  0.8785282073356769  1.0000
  Mg  Mg2       1.0  0.5220691517951499  0.8984610944692517  0.49887704228375007  1.0000
  C   C1        1.0  0.4563085601877516  0.6090590467190816  0.26735965502417675  1.0000
  C   C2        1.0  0.42983030640329406  0.563026733927398  0.1072188101997965  1.0000
  C   C3        1.0  0.38951621737863346  0.8109868439506436  0.2927755561646615  1.0000
  C   C4        1.0  0.4542853943152692  0.743210513240615  0.8972729853886465  1.0000
  C   C5        1.0  0.5096055790515045  0.38852328150962995  0.4229375728968069  1.0000
  C   C6        1.0  0.6968917069619203  0.9493649904776287  0.9801387943501689  1.0000
  C   C7        1.0  0.9981259578239954  0.3376349982978135  0.2140536093838965  1.0000
  C   C8        1.0  0.022451795513326267  0.478205714374253  0.5517366685662837  1.0000
  O   O1        1.0  0.4617022619400831  0.4188280499994321  0.5950841774778458  1.0000
  O   O2        1.0  0.548806878146721  0.10797494325299462  0.007330023824533405  1.0000
  O   O3        1.0  0.10480790321030398  0.34294222019764836  0.030659355045467462  1.0000
  O   O4        1.0  0.002778714260326054  0.3481174431879846  0.7014464045185431  1.0000
  O   O5        1.0  0.6380594156684521  0.2006812654008604  0.37670883446869  1.0000
  O   O6        1.0  0.37366892258567197  0.7320465964255134  0.7694407308746652  1.0000
  O   O7        1.0  0.9223157343452861  0.30544268908377986  0.4012473587640224  1.0000
  O   O8        1.0  0.9422818677239773  0.649294197207569  0.4304740091821093  1.0000
  O   O9        1.0  0.2853822077614121  0.9335193467747269  0.3853455046989614  1.0000
  O   O10       1.0  0.5721379667037441  0.8258235392242298  0.8007667656636546  1.0000
  O   O11       1.0  0.40899091261637555  0.4127276880350669  0.10740384226437306  1.0000
  O   O12       1.0  0.8246960014861975  0.7654016688391428  0.9993536703925684  1.0000
data_image93
_chemical_formula_structural       Mg2C8O12
_chemical_formula_sum              "Mg2 C8 O12"
_cell_length_a       7.872530813609877
_cell_length_b       7.872530813609877
_cell_length_c       7.368803275525341
_cell_angle_alpha    62.34925540174321
_cell_angle_beta     62.34925540174321
_cell_angle_gamma    54.72736521231912

_space_group_name_H-M_alt    "P 1"
_space_group_IT_number       1

loop_
  _space_group_symop_operation_xyz
  'x, y, z'

loop_
  _atom_site_type_symbol
  _atom_site_label
  _atom_site_symmetry_multiplicity
  _atom_site_fract_x
  _atom_site_fract_y
  _atom_site_fract_z
  _atom_site_occupancy
  Mg  Mg1       1.0  0.25754101255497414  0.4999175294094935  0.9015546872277714  1.0000
  Mg  Mg2       1.0  0.4158611908631158  0.026679810142149173  0.5807886563201629  1.0000
  C   C1        1.0  0.4048419354059704  0.5843091534113505  0.30233381594701975  1.0000
  C   C2        1.0  0.42982193412270225  0.5823506744639815  0.10466192948189731  1.0000
  C   C3        1.0  0.4991800617251984  0.6926028740927105  0.3269849876606692  1.0000
  C   C4        1.0  0.5092180208449854  0.6886826587892232  0.9008554285699669  1.0000
  C   C5        1.0  0.43690246698154844  0.38577393022112505  0.48636724512252444  1.0000
  C   C6        1.0  0.8118640285902039  0.8008262073891121  0.8976999074263572  1.0000
  C   C7        1.0  0.9976751654056157  0.28500046252569744  0.1757901521840992  1.0000
  C   C8        1.0  0.9424819436641676  0.6368288895767295  0.5254549568578764  1.0000
  O   O1        1.0  0.3637815185204032  0.417993312211999  0.6686562793871212  1.0000
  O   O2        1.0  0.7381334532708652  0.9744489590235166  0.9476711911495521  1.0000
  O   O3        1.0  0.1157233767159338  0.14726165649150233  0.08534231567456341  1.0000
  O   O4        1.0  0.03884175896182861  0.44255533217449133  0.6038634250783204  1.0000
  O   O5        1.0  0.57645223084011  0.21678336787879757  0.4339134134143909  1.0000
  O   O6        1.0  0.41009573636061186  0.7371829983412393  0.7624116680486565  1.0000
  O   O7        1.0  0.8651142374036208  0.40395005955761903  0.2896922157142785  1.0000
  O   O8        1.0  0.8340539273792739  0.830525404970891  0.4432469320693495  1.0000
  O   O9        1.0  0.4775830544533797  0.8217265714218847  0.38304529806457194  1.0000
  O   O10       1.0  0.550972526832674  0.8344819924567556  0.8942744401976734  1.0000
  O   O11       1.0  0.2964870605252965  0.49135464219560077  0.1439059528927756  1.0000
  O   O12       1.0  0.9732672678284293  0.6741049436142978  0.8021611029501305  1.0000
data_image94
_chemical_formula_structural       Mg2C8O12
_chemical_formula_sum              "Mg2 C8 O12"
_cell_length_a       7.872530813609877
_cell_length_b       7.872530813609877
_cell_length_c       7.368803275525341
_cell_angle_alpha    62.34925540174321
_cell_angle_beta     62.34925540174321
_cell_angle_gamma    54.72736521231912

_space_group_name_H-M_alt    "P 1"
_space_group_IT_number       1

loop_
  _space_group_symop_operation_xyz
  'x, y, z'

loop_
  _atom_site_type_symbol
  _atom_site_label
  _atom_site_symmetry_multiplicity
  _atom_site_fract_x
  _atom_site_fract_y
  _atom_site_fract_z
  _atom_site_occupancy
  Mg  Mg1       1.0  0.3367432076259543  0.5491781024164919  0.7638230315907495  1.0000
  Mg  Mg2       1.0  0.5223902801673872  0.984849037352067  0.5789200092319187  1.0000
  C   C1        1.0  0.41757079442155937  0.5983771061882174  0.31614002381754763  1.0000
  C   C2        1.0  0.31215106133505865  0.6373945334001502  0.15933119066744678  1.0000
  C   C3        1.0  0.4235278138566425  0.7080318564761224  0.41604711393409693  1.0000
  C   C4        1.0  0.3562201190878742  0.8301003519031833  0.9406165393464495  1.0000
  C   C5        1.0  0.46621773950699885  0.3710745907205656  0.4390818254898237  1.0000
  C   C6        1.0  0.8695212247244901  0.8002961424231578  0.8848887964531191  1.0000
  C   C7        1.0  0.9507394349996641  0.2342675811796561  0.23911723907808513  1.0000
  C   C8        1.0  0.9421294855573282  0.5986700367796625  0.5408151051517234  1.0000
  O   O1        1.0  0.43664221997975117  0.31371759294091545  0.6472194212555846  1.0000
  O   O2        1.0  0.7954908981013677  0.9597998107878556  0.925742341807245  1.0000
  O   O3        1.0  0.11044057860350254  0.0981002631177722  0.15297250888375458  1.0000
  O   O4        1.0  0.9830314510804236  0.42112780535498506  0.6239946123117905  1.0000
  O   O5        1.0  0.5585471140939976  0.21690011859428845  0.3613287826142054  1.0000
  O   O6        1.0  0.288684079794326  0.8656649626877648  0.7956737580011811  1.0000
  O   O7        1.0  0.8037741588336206  0.3947685717603489  0.298213127199775  1.0000
  O   O8        1.0  0.9122052163800041  0.7805389141279295  0.44561367433280497  1.0000
  O   O9        1.0  0.48801371120384873  0.8240656582118003  0.3930799779555363  1.0000
  O   O10       1.0  0.5107417147263558  0.8808668448697835  0.8669988297566763  1.0000
  O   O11       1.0  0.28898077186728055  0.5064819405122017  0.12133813022813  1.0000
  O   O12       1.0  0.004072652732833859  0.628455316805026  0.8749429721162534  1.0000
data_image95
_chemical_formula_structural       Mg2C8O12
_chemical_formula_sum              "Mg2 C8 O12"
_cell_length_a       7.872530813609877
_cell_length_b       7.872530813609877
_cell_length_c       7.368803275525341
_cell_angle_alpha    62.34925540174321
_cell_angle_beta     62.34925540174321
_cell_angle_gamma    54.72736521231912

_space_group_name_H-M_alt    "P 1"
_space_group_IT_number       1

loop_
  _space_group_symop_operation_xyz
  'x, y, z'

loop_
  _atom_site_type_symbol
  _atom_site_label
  _atom_site_symmetry_multiplicity
  _atom_site_fract_x
  _atom_site_fract_y
  _atom_site_fract_z
  _atom_site_occupancy
  Mg  Mg1       1.0  0.33757156664552274  0.606518262200181  0.6974476011558255  1.0000
  Mg  Mg2       1.0  0.5701356268246701  0.9334219918302202  0.45785370798975145  1.0000
  C   C1        1.0  0.4310651897955742  0.5436603311968282  0.29948853540409776  1.0000
  C   C2        1.0  0.3596287869952469  0.6533913229619559  0.10707548455215023  1.0000
  C   C3        1.0  0.43676024493386223  0.6996557137576759  0.319314670654593  1.0000
  C   C4        1.0  0.37008243379899686  0.8349134475240522  0.9186712917907374  1.0000
  C   C5        1.0  0.3925872708818535  0.3644749995154737  0.47323686121571423  1.0000
  C   C6        1.0  0.9139327009494644  0.9220181122139195  0.8182646908978584  1.0000
  C   C7        1.0  0.9975236076897017  0.2506500077020915  0.2862757883984206  1.0000
  C   C8        1.0  0.9102691072237084  0.5041708521298783  0.6561066991475104  1.0000
  O   O1        1.0  0.38440990029728395  0.35148567304759165  0.6433300007980831  1.0000
  O   O2        1.0  0.7448677183276735  0.10104496537715169  0.8369430669382614  1.0000
  O   O3        1.0  0.013185004252318722  0.24553101028322338  0.12841713651079978  1.0000
  O   O4        1.0  0.9548509214425162  0.3198722384219422  0.760356035948816  1.0000
  O   O5        1.0  0.4169773980927616  0.21498293038612704  0.43385047935395155  1.0000
  O   O6        1.0  0.3623859229565456  0.8314894001375935  0.743767507651581  1.0000
  O   O7        1.0  0.9290119039084063  0.3042002274691528  0.44718358267768044  1.0000
  O   O8        1.0  0.8698984962025706  0.6836889075614294  0.5928681768055835  1.0000
  O   O9        1.0  0.5536640294341948  0.6821872374358386  0.40273009061283627  1.0000
  O   O10       1.0  0.5196844112172655  0.8819633001180864  0.8907835775925647  1.0000
  O   O11       1.0  0.30538754673041535  0.5430722626413232  0.07409927014164953  1.0000
  O   O12       1.0  0.9986633459563421  0.7255106267853122  0.8795895160230549  1.0000
data_image96
_chemical_formula_structural       Mg2C8O12
_chemical_formula_sum              "Mg2 C8 O12"
_cell_length_a       7.872530813609877
_cell_length_b       7.872530813609877
_cell_length_c       7.368803275525341
_cell_angle_alpha    62.34925540174321
_cell_angle_beta     62.34925540174321
_cell_angle_gamma    54.72736521231912

_space_group_name_H-M_alt    "P 1"
_space_group_IT_number       1

loop_
  _space_group_symop_operation_xyz
  'x, y, z'

loop_
  _atom_site_type_symbol
  _atom_site_label
  _atom_site_symmetry_multiplicity
  _atom_site_fract_x
  _atom_site_fract_y
  _atom_site_fract_z
  _atom_site_occupancy
  Mg  Mg1       1.0  0.27132060650385914  0.5866149772812896  0.7615990547652876  1.0000
  Mg  Mg2       1.0  0.5134905928948764  0.9216958344659065  0.39629587484291945  1.0000
  C   C1        1.0  0.38937604453514446  0.5822338077133249  0.2452091671749868  1.0000
  C   C2        1.0  0.354096646668204  0.6457408024166283  0.05156218968827908  1.0000
  C   C3        1.0  0.38197470837925157  0.7391890081971738  0.3119956175852213  1.0000
  C   C4        1.0  0.33803067477385595  0.8674980133098501  0.8565393560981058  1.0000
  C   C5        1.0  0.40943175451215974  0.3778619699833531  0.45024037903587083  1.0000
  C   C6        1.0  0.8941469087008638  0.010716288132431417  0.8386284218403126  1.0000
  C   C7        1.0  0.08467523511012143  0.1716428145582189  0.37746373322312765  1.0000
  C   C8        1.0  0.9233377237396058  0.482762723011089  0.7002928749249131  1.0000
  O   O1        1.0  0.32443582895906575  0.39669109244684575  0.6263283042865512  1.0000
  O   O2        1.0  0.8273833056360429  0.11708650274938859  0.9597588635351415  1.0000
  O   O3        1.0  0.07346054273784186  0.14706635431404022  0.2403434693023303  1.0000
  O   O4        1.0  0.9866451062559728  0.35866795523381834  0.8387035823052704  1.0000
  O   O5        1.0  0.513723270347135  0.175279071221  0.43222386724743156  1.0000
  O   O6        1.0  0.33678348557990223  0.8449180544261101  0.696563480503154  1.0000
  O   O7        1.0  0.10714656857803848  0.19542458135124655  0.5081849979632682  1.0000
  O   O8        1.0  0.8094583641760128  0.6116341334321351  0.5884705654041489  1.0000
  O   O9        1.0  0.560498711853894  0.6552257055448709  0.3731103405607987  1.0000
  O   O10       1.0  0.3748033083050889  0.9894612859071399  0.8627753184610882  1.0000
  O   O11       1.0  0.416488847926079  0.47895790272398403  0.974893768059524  1.0000
  O   O12       1.0  0.937493811070925  0.8837987488583365  0.7642702538097843  1.0000
data_image97
_chemical_formula_structural       Mg2C8O12
_chemical_formula_sum              "Mg2 C8 O12"
_cell_length_a       7.872530813609877
_cell_length_b       7.872530813609877
_cell_length_c       7.368803275525341
_cell_angle_alpha    62.34925540174321
_cell_angle_beta     62.34925540174321
_cell_angle_gamma    54.72736521231912

_space_group_name_H-M_alt    "P 1"
_space_group_IT_number       1

loop_
  _space_group_symop_operation_xyz
  'x, y, z'

loop_
  _atom_site_type_symbol
  _atom_site_label
  _atom_site_symmetry_multiplicity
  _atom_site_fract_x
  _atom_site_fract_y
  _atom_site_fract_z
  _atom_site_occupancy
  Mg  Mg1       1.0  0.24585879020626653  0.5796413046622205  0.7693967846566403  1.0000
  Mg  Mg2       1.0  0.5157184605309292  0.9123560435286108  0.4837022488545098  1.0000
  C   C1        1.0  0.42290199752391977  0.5320064189489564  0.26344896425698205  1.0000
  C   C2        1.0  0.3300711009100485  0.6132876614282369  0.0978900216242233  1.0000
  C   C3        1.0  0.5229585404184427  0.6045021098552644  0.2808960177951958  1.0000
  C   C4        1.0  0.39107204004068774  0.7609864363422351  0.9099171040132943  1.0000
  C   C5        1.0  0.4611801213779525  0.3106460523548134  0.456315957100578  1.0000
  C   C6        1.0  0.858227129224816  0.9482037358328961  0.8000626471007295  1.0000
  C   C7        1.0  0.13382044686572647  0.24441407892787267  0.37301966434627065  1.0000
  C   C8        1.0  0.8152367407250956  0.6028613526240942  0.7130726551172886  1.0000
  O   O1        1.0  0.388774328629813  0.32829020501705064  0.6347379764611054  1.0000
  O   O2        1.0  0.7669131377244329  0.11753096799959506  0.8609019226425847  1.0000
  O   O3        1.0  0.09432114363012922  0.1803102210487275  0.27958655982097746  1.0000
  O   O4        1.0  0.8511889028704254  0.5312022225751584  0.8718540132420907  1.0000
  O   O5        1.0  0.5847710090579407  0.1351221023901383  0.3914998040506465  1.0000
  O   O6        1.0  0.32677783550357326  0.8096391661172121  0.7188737243446051  1.0000
  O   O7        1.0  0.1481678204078066  0.30905275733161824  0.47626690743005784  1.0000
  O   O8        1.0  0.7842706744383958  0.6673489350081625  0.5440540059599621  1.0000
  O   O9        1.0  0.5974190515308841  0.6933654380175742  0.2886873414285644  1.0000
  O   O10       1.0  0.452735326421609  0.8908204211209269  0.8842699982285314  1.0000
  O   O11       1.0  0.20677068453384978  0.574266069760422  0.07312133746301923  1.0000
  O   O12       1.0  0.9818306773758279  0.8370052885539839  0.6503323844637351  1.0000
data_image98
_chemical_formula_structural       Mg2C8O12
_chemical_formula_sum              "Mg2 C8 O12"
_cell_length_a       7.872530813609877
_cell_length_b       7.872530813609877
_cell_length_c       7.368803275525341
_cell_angle_alpha    62.34925540174321
_cell_angle_beta     62.34925540174321
_cell_angle_gamma    54.72736521231912

_space_group_name_H-M_alt    "P 1"
_space_group_IT_number       1

loop_
  _space_group_symop_operation_xyz
  'x, y, z'

loop_
  _atom_site_type_symbol
  _atom_site_label
  _atom_site_symmetry_multiplicity
  _atom_site_fract_x
  _atom_site_fract_y
  _atom_site_fract_z
  _atom_site_occupancy
  Mg  Mg1       1.0  0.20724071614387524  0.5185090364007916  0.8774216166359888  1.0000
  Mg  Mg2       1.0  0.542840422072539  0.9361249981246834  0.46795637948275115  1.0000
  C   C1        1.0  0.4116719449975272  0.6082592563320725  0.2407404995135436  1.0000
  C   C2        1.0  0.32476706967773683  0.6444785432004454  0.09616300742089381  1.0000
  C   C3        1.0  0.41569555870686115  0.780627442798877  0.2639634386517939  1.0000
  C   C4        1.0  0.4145416671401913  0.7429822903050259  0.8719919088061883  1.0000
  C   C5        1.0  0.4340276794759508  0.406124989359686  0.42505714322645266  1.0000
  C   C6        1.0  0.8530275351940106  0.9532618733084253  0.7630115924476535  1.0000
  C   C7        1.0  0.08223224974283205  0.2483473183871165  0.3728838756881374  1.0000
  C   C8        1.0  0.8982167812005203  0.47889503454818966  0.7427955326425384  1.0000
  O   O1        1.0  0.3171839030301381  0.43686472491985373  0.6244068987341247  1.0000
  O   O2        1.0  0.7211837286533642  0.08068237946161694  0.8462945039573795  1.0000
  O   O3        1.0  0.9462490544351095  0.3886058633819712  0.2979141412409183  1.0000
  O   O4        1.0  0.026367569635306686  0.39576176297871385  0.8469384242955185  1.0000
  O   O5        1.0  0.5175344925248595  0.2321362954947945  0.36520878200144186  1.0000
  O   O6        1.0  0.4608782986751751  0.6620857957035892  0.7260341668618999  1.0000
  O   O7        1.0  0.24386537760336063  0.08551819997968217  0.4093973469161212  1.0000
  O   O8        1.0  0.8165819355250447  0.609076041850553  0.6015754741989441  1.0000
  O   O9        1.0  0.5263366507189311  0.7869764056353357  0.3163577587334475  1.0000
  O   O10       1.0  0.439021729525656  0.9187103723673478  0.8165801869247715  1.0000
  O   O11       1.0  0.2428824031726851  0.5404146876559052  0.10123565833410425  1.0000
  O   O12       1.0  0.019530823828627142  0.8087996032474958  0.6713263940972961  1.0000
data_image99
_chemical_formula_structural       Mg2C8O12
_chemical_formula_sum              "Mg2 C8 O12"
_cell_length_a       7.872530813609877
_cell_length_b       7.872530813609877
_cell_length_c       7.368803275525341
_cell_angle_alpha    62.34925540174321
_cell_angle_beta     62.34925540174321
_cell_angle_gamma    54.72736521231912

_space_group_name_H-M_alt    "P 1"
_space_group_IT_number       1

loop_
  _space_group_symop_operation_xyz
  'x, y, z'

loop_
  _atom_site_type_symbol
  _atom_site_label
  _atom_site_symmetry_multiplicity
  _atom_site_fract_x
  _atom_site_fract_y
  _atom_site_fract_z
  _atom_site_occupancy
  Mg  Mg1       1.0  0.26944243737064044  0.5498514442640527  0.822145105509154  1.0000
  Mg  Mg2       1.0  0.48099422375610945  0.9327307213776479  0.46435135634354563  1.0000
  C   C1        1.0  0.47097411814777745  0.5932171106827129  0.17973042336606782  1.0000
  C   C2        1.0  0.3328448853194346  0.6617785880074711  0.05816704474046326  1.0000
  C   C3        1.0  0.5525153402982687  0.7376968574770458  0.12278021740965643  1.0000
  C   C4        1.0  0.38275451242740344  0.7904333664800477  0.8387067141661331  1.0000
  C   C5        1.0  0.4771351137805606  0.3848916730661771  0.3705110653728443  1.0000
  C   C6        1.0  0.8163184506724335  0.021053064012266365  0.7949679760510857  1.0000
  C   C7        1.0  0.9947109765911128  0.2189470122772522  0.4367994438577576  1.0000
  C   C8        1.0  0.9589839776927428  0.45842601360914526  0.8174531869784534  1.0000
  O   O1        1.0  0.4117023142145171  0.3920648483351884  0.5569635640221571  1.0000
  O   O2        1.0  0.6184930858445161  0.10048527721137579  0.8584674562812649  1.0000
  O   O3        1.0  0.8194951763234709  0.34737887248690213  0.41934879532475144  1.0000
  O   O4        1.0  0.9758031950555252  0.3263233699571853  0.9813239280698443  1.0000
  O   O5        1.0  0.5381870885421125  0.18864895398613177  0.34988125216976246  1.0000
  O   O6        1.0  0.4601585706972325  0.6807527512384531  0.7066201577451933  1.0000
  O   O7        1.0  0.17289709048122068  0.14859188602941367  0.4142961762456925  1.0000
  O   O8        1.0  0.9402309585935363  0.6209294417013487  0.6786568946795151  1.0000
  O   O9        1.0  0.5839750776907928  0.7558848967268641  0.24809569636002554  1.0000
  O   O10       1.0  0.4034544851647128  0.9515618314678127  0.7597627645534386  1.0000
  O   O11       1.0  0.22514573485358177  0.5463209432072711  0.12235015516009894  1.0000
  O   O12       1.0  0.011953859001180067  0.8429137619765379  0.73744257026065  1.0000
data_image100
_chemical_formula_structural       Mg2C8O12
_chemical_formula_sum              "Mg2 C8 O12"
_cell_length_a       7.872530813609877
_cell_length_b       7.872530813609877
_cell_length_c       7.368803275525341
_cell_angle_alpha    62.34925540174321
_cell_angle_beta     62.34925540174321
_cell_angle_gamma    54.72736521231912

_space_group_name_H-M_alt    "P 1"
_space_group_IT_number       1

loop_
  _space_group_symop_operation_xyz
  'x, y, z'

loop_
  _atom_site_type_symbol
  _atom_site_label
  _atom_site_symmetry_multiplicity
  _atom_site_fract_x
  _atom_site_fract_y
  _atom_site_fract_z
  _atom_site_occupancy
  Mg  Mg1       1.0  0.267084751722822  0.5988308129588371  0.7103791596444429  1.0000
  Mg  Mg2       1.0  0.4958405869292203  0.0011313700338266544  0.4057397978421345  1.0000
  C   C1        1.0  0.49097997950460576  0.5332135460280303  0.2118488608441098  1.0000
  C   C2        1.0  0.3974029842334549  0.5421503960652462  0.05629984452654792  1.0000
  C   C3        1.0  0.5379740833467849  0.6993988965232834  0.18892136992638947  1.0000
  C   C4        1.0  0.39686303592738953  0.764024523298861  0.8786070787845505  1.0000
  C   C5        1.0  0.44851494927478874  0.38759191559848033  0.4058739268237905  1.0000
  C   C6        1.0  0.814852039074438  0.9812055926718508  0.8102624654592188  1.0000
  C   C7        1.0  0.02667339124696988  0.2183970640739967  0.394165158156883  1.0000
  C   C8        1.0  0.9407361784325122  0.46689332105411335  0.8683113492884631  1.0000
  O   O1        1.0  0.29263897991691645  0.4352039745841828  0.5654133120082125  1.0000
  O   O2        1.0  0.6748598212392676  0.1262433680445163  0.7434916123808117  1.0000
  O   O3        1.0  0.8724456348494447  0.29704320024649766  0.32912758262043296  1.0000
  O   O4        1.0  0.10181766425161753  0.372401927289178  0.9275341119204461  1.0000
  O   O5        1.0  0.5791947828309597  0.1939323201919549  0.4042066497965846  1.0000
  O   O6        1.0  0.39724632668633036  0.7724672957160121  0.6996955563530797  1.0000
  O   O7        1.0  0.19874487751835127  0.19147643648742357  0.38536240122947585  1.0000
  O   O8        1.0  0.7742737618552661  0.5504420322403185  0.838250771612576  1.0000
  O   O9        1.0  0.47836080902997025  0.8489645168115046  0.2460954898854186  1.0000
  O   O10       1.0  0.35116687968257687  0.9201426619419413  0.9236464427211694  1.0000
  O   O11       1.0  0.40246584227224436  0.3920670438291467  0.04231977941958082  1.0000
  O   O12       1.0  0.967527192147873  0.8299860953397336  0.8387942125355528  1.0000
data_image101
_chemical_formula_structural       Mg2C8O12
_chemical_formula_sum              "Mg2 C8 O12"
_cell_length_a       7.872530813609877
_cell_length_b       7.872530813609877
_cell_length_c       7.368803275525341
_cell_angle_alpha    62.34925540174321
_cell_angle_beta     62.34925540174321
_cell_angle_gamma    54.72736521231912

_space_group_name_H-M_alt    "P 1"
_space_group_IT_number       1

loop_
  _space_group_symop_operation_xyz
  'x, y, z'

loop_
  _atom_site_type_symbol
  _atom_site_label
  _atom_site_symmetry_multiplicity
  _atom_site_fract_x
  _atom_site_fract_y
  _atom_site_fract_z
  _atom_site_occupancy
  Mg  Mg1       1.0  0.3764395136227617  0.5393657784639606  0.6616602538493566  1.0000
  Mg  Mg2       1.0  0.4838461196646383  0.9300106113914863  0.41142153317818664  1.0000
  C   C1        1.0  0.4400413259028139  0.5085506440368499  0.2639668146900999  1.0000
  C   C2        1.0  0.29777241269327903  0.6367436197958227  0.08507778480912262  1.0000
  C   C3        1.0  0.45611232657661893  0.6628253050963974  0.3077987053093312  1.0000
  C   C4        1.0  0.22052205945966774  0.8875910678183693  0.8957095054539904  1.0000
  C   C5        1.0  0.5001532226457255  0.27646546119646953  0.39861701123309995  1.0000
  C   C6        1.0  0.8242277871829069  0.044594804645285535  0.8069189960676304  1.0000
  C   C7        1.0  0.07396151181581234  0.31155214485597604  0.3113109436791004  1.0000
  C   C8        1.0  0.043587111198776035  0.3742816569267774  0.8790261541418412  1.0000
  O   O1        1.0  0.416042186700907  0.2778010647681491  0.6012413639907738  1.0000
  O   O2        1.0  0.7318774489538094  0.2302103431907525  0.7959462425514916  1.0000
  O   O3        1.0  0.891169943015536  0.3583384493106628  0.3314193191117685  1.0000
  O   O4        1.0  0.14763477335093644  0.3763209116078302  0.9719098117631566  1.0000
  O   O5        1.0  0.613765994768192  0.0910178631161634  0.3477202789909785  1.0000
  O   O6        1.0  0.3345377740819659  0.8379732665267162  0.7064832516605025  1.0000
  O   O7        1.0  0.24180482165909023  0.2254881271780325  0.35724550596626603  1.0000
  O   O8        1.0  0.9738569516393123  0.4201479224270359  0.745757730448088  1.0000
  O   O9        1.0  0.4564899102370017  0.8445407852284845  0.23849107318690624  1.0000
  O   O10       1.0  0.037417492747001915  0.02364057937353148  0.9668136101676569  1.0000
  O   O11       1.0  0.36242340228491243  0.5038927888219765  0.9932459641418168  1.0000
  O   O12       1.0  0.8842315275579906  0.8552514301105144  0.8517368742643302  1.0000
data_image102
_chemical_formula_structural       Mg2C8O12
_chemical_formula_sum              "Mg2 C8 O12"
_cell_length_a       7.872530813609877
_cell_length_b       7.872530813609877
_cell_length_c       7.368803275525341
_cell_angle_alpha    62.34925540174321
_cell_angle_beta     62.34925540174321
_cell_angle_gamma    54.72736521231912

_space_group_name_H-M_alt    "P 1"
_space_group_IT_number       1

loop_
  _space_group_symop_operation_xyz
  'x, y, z'

loop_
  _atom_site_type_symbol
  _atom_site_label
  _atom_site_symmetry_multiplicity
  _atom_site_fract_x
  _atom_site_fract_y
  _atom_site_fract_z
  _atom_site_occupancy
  Mg  Mg1       1.0  0.479255036009268  0.31552384172793235  0.7933227343806685  1.0000
  Mg  Mg2       1.0  0.4526791190328172  0.9782752456605144  0.42444470418464525  1.0000
  C   C1        1.0  0.43463717918381817  0.5727690518988748  0.16287613978886226  1.0000
  C   C2        1.0  0.3527940604043529  0.588149848033622  0.029630930624324134  1.0000
  C   C3        1.0  0.38405980059168626  0.7427234935839786  0.2511679260275732  1.0000
  C   C4        1.0  0.2553469228209512  0.8090635453328897  0.8759510297327672  1.0000
  C   C5        1.0  0.49229093187047923  0.3880058404540932  0.3462817072581722  1.0000
  C   C6        1.0  0.8582502142993116  0.9891597950104384  0.859462956919423  1.0000
  C   C7        1.0  0.9319744615979914  0.31594759228832775  0.4952502832483989  1.0000
  C   C8        1.0  0.04226626950153698  0.46347906547307727  0.729240501301113  1.0000
  O   O1        1.0  0.4749633156463101  0.4493426672834222  0.47929868424114735  1.0000
  O   O2        1.0  0.7916567476212235  0.1813566582837025  0.8514936196800105  1.0000
  O   O3        1.0  0.772258528629481  0.46061438719097836  0.46886925060122886  1.0000
  O   O4        1.0  0.16718136851623006  0.32684511645421466  0.8302248044070164  1.0000
  O   O5        1.0  0.5318619155963409  0.20788656294613223  0.34871448284241763  1.0000
  O   O6        1.0  0.37327400325238397  0.7610805259810676  0.6911814166072646  1.0000
  O   O7        1.0  0.11100828498372312  0.1764672576140199  0.46562592764001076  1.0000
  O   O8        1.0  0.9214463099371237  0.614074741458936  0.6349932880285469  1.0000
  O   O9        1.0  0.5291796579319041  0.7736897282549464  0.2630074868679942  1.0000
  O   O10       1.0  0.1718479246736394  0.9690447978962307  0.9373044844342506  1.0000
  O   O11       1.0  0.30718430481385556  0.433242899694832  0.06552857191056147  1.0000
  O   O12       1.0  0.9100751781902054  0.8310149460730207  0.8006122881800396  1.0000
data_image103
_chemical_formula_structural       Mg2C8O12
_chemical_formula_sum              "Mg2 C8 O12"
_cell_length_a       7.872530813609877
_cell_length_b       7.872530813609877
_cell_length_c       7.368803275525341
_cell_angle_alpha    62.34925540174321
_cell_angle_beta     62.34925540174321
_cell_angle_gamma    54.72736521231912

_space_group_name_H-M_alt    "P 1"
_space_group_IT_number       1

loop_
  _space_group_symop_operation_xyz
  'x, y, z'

loop_
  _atom_site_type_symbol
  _atom_site_label
  _atom_site_symmetry_multiplicity
  _atom_site_fract_x
  _atom_site_fract_y
  _atom_site_fract_z
  _atom_site_occupancy
  Mg  Mg1       1.0  0.45153350860429486  0.31078233267843647  0.8193290523048646  1.0000
  Mg  Mg2       1.0  0.3011220701080718  0.029318428028531535  0.5206351126185799  1.0000
  C   C1        1.0  0.4952437438786949  0.5237363120314016  0.1751271973772647  1.0000
  C   C2        1.0  0.38881404300140543  0.5095274938042152  0.0634824881273066  1.0000
  C   C3        1.0  0.45080652165892204  0.7398804460877939  0.13361776590326427  1.0000
  C   C4        1.0  0.32379829447381775  0.6949378462771456  0.8548790669886641  1.0000
  C   C5        1.0  0.5809245185039417  0.3228464767654654  0.35281054910662574  1.0000
  C   C6        1.0  0.8226330682572569  0.9602089791808064  0.9380283050162879  1.0000
  C   C7        1.0  0.930787569262632  0.37647480884881923  0.4483729382262138  1.0000
  C   C8        1.0  0.9623397409827654  0.5924694061028836  0.7267815746853912  1.0000
  O   O1        1.0  0.639534455587396  0.3134255382693565  0.499360096491716  1.0000
  O   O2        1.0  0.7447623787250679  0.1547479904946698  0.8742446629882576  1.0000
  O   O3        1.0  0.8166231193255614  0.5117687586245043  0.5370419178322714  1.0000
  O   O4        1.0  0.1106503347990845  0.4427481583466394  0.7949402709657851  1.0000
  O   O5        1.0  0.5520666647609817  0.1543929033526219  0.42707482071553654  1.0000
  O   O6        1.0  0.3674692672931733  0.7003588548975731  0.650970909845577  1.0000
  O   O7        1.0  0.0355727726829156  0.29192984331524635  0.3121495844068243  1.0000
  O   O8        1.0  0.8593209430510969  0.7545842619543042  0.6329375812706912  1.0000
  O   O9        1.0  0.43471105048379766  0.9082985433937911  0.08416121119064325  1.0000
  O   O10       1.0  0.2813808277220673  0.8605503007467091  0.891574337029246  1.0000
  O   O11       1.0  0.3886301494551647  0.33160674177265814  0.12283423856704877  1.0000
  O   O12       1.0  0.9501878411000964  0.8018366874672979  0.8668866502383998  1.0000
data_image104
_chemical_formula_structural       Mg2C8O12
_chemical_formula_sum              "Mg2 C8 O12"
_cell_length_a       7.872530813609877
_cell_length_b       7.872530813609877
_cell_length_c       7.368803275525341
_cell_angle_alpha    62.34925540174321
_cell_angle_beta     62.34925540174321
_cell_angle_gamma    54.72736521231912

_space_group_name_H-M_alt    "P 1"
_space_group_IT_number       1

loop_
  _space_group_symop_operation_xyz
  'x, y, z'

loop_
  _atom_site_type_symbol
  _atom_site_label
  _atom_site_symmetry_multiplicity
  _atom_site_fract_x
  _atom_site_fract_y
  _atom_site_fract_z
  _atom_site_occupancy
  Mg  Mg1       1.0  0.4854909508009081  0.34792518083954804  0.764672079394154  1.0000
  Mg  Mg2       1.0  0.38715158858231224  0.9842196146098982  0.48233152444438837  1.0000
  C   C1        1.0  0.4497735017776473  0.5616889083367357  0.17067528730648726  1.0000
  C   C2        1.0  0.34851938697642865  0.5678430046978947  0.042325775589397555  1.0000
  C   C3        1.0  0.48613826516889713  0.7241466859484267  0.11638675101496974  1.0000
  C   C4        1.0  0.3389959174688165  0.7393594467261346  0.8564548780570225  1.0000
  C   C5        1.0  0.5352067403385399  0.33908197743626367  0.33624932338380104  1.0000
  C   C6        1.0  0.8419104836188682  0.9451649738130238  0.03770740173515641  1.0000
  C   C7        1.0  0.9250230359411655  0.3670002672406027  0.4170338466789032  1.0000
  C   C8        1.0  0.9570434018759253  0.5691258215749282  0.6893613526447686  1.0000
  O   O1        1.0  0.583665280713354  0.3393852056558375  0.4756015268623809  1.0000
  O   O2        1.0  0.7583138574179684  0.12449887450129982  0.9280636503216289  1.0000
  O   O3        1.0  0.7980965369089459  0.5193180866474183  0.4949248465931697  1.0000
  O   O4        1.0  0.1348107293225396  0.43159417675252904  0.6565291947940128  1.0000
  O   O5        1.0  0.5668154939044397  0.16859485768960125  0.3126466081898656  1.0000
  O   O6        1.0  0.3388774850515893  0.6899215250091957  0.7128265215978125  1.0000
  O   O7        1.0  0.017981395215818922  0.19109197240329728  0.3913541492255508  1.0000
  O   O8        1.0  0.7758483471450693  0.7182194947687164  0.7129409907900315  1.0000
  O   O9        1.0  0.5985846267798787  0.8004880357315995  0.06603127763262094  1.0000
  O   O10       1.0  0.29576103792091235  0.9359392721730408  0.8340162091022588  1.0000
  O   O11       1.0  0.27611469257298327  0.4372395484222904  0.08935365636136856  1.0000
  O   O12       1.0  0.9066023941250227  0.8115107304319784  0.1816690141998628  1.0000
data_image105
_chemical_formula_structural       Mg2C8O12
_chemical_formula_sum              "Mg2 C8 O12"
_cell_length_a       7.872530813609877
_cell_length_b       7.872530813609877
_cell_length_c       7.368803275525341
_cell_angle_alpha    62.34925540174321
_cell_angle_beta     62.34925540174321
_cell_angle_gamma    54.72736521231912

_space_group_name_H-M_alt    "P 1"
_space_group_IT_number       1

loop_
  _space_group_symop_operation_xyz
  'x, y, z'

loop_
  _atom_site_type_symbol
  _atom_site_label
  _atom_site_symmetry_multiplicity
  _atom_site_fract_x
  _atom_site_fract_y
  _atom_site_fract_z
  _atom_site_occupancy
  Mg  Mg1       1.0  0.404792776571375  0.3952322210095113  0.7964968756774472  1.0000
  Mg  Mg2       1.0  0.5194055587362056  0.883207627370604  0.42713315472223057  1.0000
  C   C1        1.0  0.45749808319227525  0.5188765640087462  0.18732602762220957  1.0000
  C   C2        1.0  0.3580555856345483  0.5754012621274441  0.04568595207989275  1.0000
  C   C3        1.0  0.4817072201141835  0.6740142069211094  0.20207135502979706  1.0000
  C   C4        1.0  0.3433442160587548  0.7656879368657222  0.8607633599068985  1.0000
  C   C5        1.0  0.451557652291004  0.34461183702182197  0.3802577518232203  1.0000
  C   C6        1.0  0.8470425855298911  0.07971119816684391  0.879656851551488  1.0000
  C   C7        1.0  0.017083726047397496  0.28512665719056246  0.42447540924611404  1.0000
  C   C8        1.0  0.9144050149212116  0.5715668351367953  0.7448861013835439  1.0000
  O   O1        1.0  0.46268050092402413  0.36642222112865463  0.5360017632519254  1.0000
  O   O2        1.0  0.7218016040586057  0.13664495518955722  0.772136421304727  1.0000
  O   O3        1.0  0.8532791529162131  0.4265191093504641  0.4580624877281916  1.0000
  O   O4        1.0  0.08812920129030002  0.45166128292544494  0.7946558521214153  1.0000
  O   O5        1.0  0.46400729920450096  0.17754658810041604  0.410486260180246  1.0000
  O   O6        1.0  0.34415990176073585  0.7150179103357035  0.6988399095309583  1.0000
  O   O7        1.0  0.18953467644504957  0.16236226205143747  0.352890020424663  1.0000
  O   O8        1.0  0.8183104676704573  0.6933217285110209  0.6123114446322122  1.0000
  O   O9        1.0  0.5317081639187022  0.7185946647046527  0.29285598084783176  1.0000
  O   O10       1.0  0.32127310856382196  0.9517931247431253  0.7991602828520201  1.0000
  O   O11       1.0  0.30838445137122716  0.44215279528725365  0.06324836560363226  1.0000
  O   O12       1.0  0.8799028491548078  0.00712549095461818  0.055562187325511846  1.0000
data_image106
_chemical_formula_structural       Mg2C8O12
_chemical_formula_sum              "Mg2 C8 O12"
_cell_length_a       7.872530813609877
_cell_length_b       7.872530813609877
_cell_length_c       7.368803275525341
_cell_angle_alpha    62.34925540174321
_cell_angle_beta     62.34925540174321
_cell_angle_gamma    54.72736521231912

_space_group_name_H-M_alt    "P 1"
_space_group_IT_number       1

loop_
  _space_group_symop_operation_xyz
  'x, y, z'

loop_
  _atom_site_type_symbol
  _atom_site_label
  _atom_site_symmetry_multiplicity
  _atom_site_fract_x
  _atom_site_fract_y
  _atom_site_fract_z
  _atom_site_occupancy
  Mg  Mg1       1.0  0.24253005743445483  0.45320847950254994  0.8352835675426425  1.0000
  Mg  Mg2       1.0  0.5371065681275233  0.8837655675851097  0.45275527281139283  1.0000
  C   C1        1.0  0.47485015453930723  0.48497150381798754  0.22282530201596065  1.0000
  C   C2        1.0  0.32835577726871984  0.5897073021234868  0.10310079504909014  1.0000
  C   C3        1.0  0.5651286859851359  0.6024577370158777  0.1772736771748009  1.0000
  C   C4        1.0  0.33081435404108456  0.8162710342479439  0.9254469472769722  1.0000
  C   C5        1.0  0.5219235413177126  0.28342764335524623  0.42378027709446836  1.0000
  C   C6        1.0  0.7288663342574353  0.11503934264505977  0.8998787157866983  1.0000
  C   C7        1.0  0.11003477403721962  0.17911638985165165  0.3234923157136771  1.0000
  C   C8        1.0  0.8897278584212138  0.6660225681143912  0.6562129423990801  1.0000
  O   O1        1.0  0.43172454562736406  0.279312043657866  0.6189833062001044  1.0000
  O   O2        1.0  0.5564328931834388  0.16332954022050905  0.9016617620913541  1.0000
  O   O3        1.0  0.9914605605361652  0.3553162754940692  0.27329691917058985  1.0000
  O   O4        1.0  0.9460275565829604  0.6688572199069754  0.7707605426832078  1.0000
  O   O5        1.0  0.6517851938379056  0.10036327119511168  0.3819842507808906  1.0000
  O   O6        1.0  0.386334778773293  0.7742799757510445  0.7414597186727894  1.0000
  O   O7        1.0  0.2282925605547103  0.013431231131588266  0.41569873716042305  1.0000
  O   O8        1.0  0.8700211016527545  0.6509158680365352  0.5186819875224182  1.0000
  O   O9        1.0  0.620403004630401  0.7048376702290943  0.19901314776212375  1.0000
  O   O10       1.0  0.27702917384096826  0.9899173248876785  0.9353711826542435  1.0000
  O   O11       1.0  0.2928006129416  0.4765692556429007  0.06283933126532773  1.0000
  O   O12       1.0  0.8907749868433363  0.042406835477032244  0.9216311667809343  1.0000
data_image107
_chemical_formula_structural       Mg2C8O12
_chemical_formula_sum              "Mg2 C8 O12"
_cell_length_a       7.872530813609877
_cell_length_b       7.872530813609877
_cell_length_c       7.368803275525341
_cell_angle_alpha    62.34925540174321
_cell_angle_beta     62.34925540174321
_cell_angle_gamma    54.72736521231912

_space_group_name_H-M_alt    "P 1"
_space_group_IT_number       1

loop_
  _space_group_symop_operation_xyz
  'x, y, z'

loop_
  _atom_site_type_symbol
  _atom_site_label
  _atom_site_symmetry_multiplicity
  _atom_site_fract_x
  _atom_site_fract_y
  _atom_site_fract_z
  _atom_site_occupancy
  Mg  Mg1       1.0  0.27667235467033  0.4095424473876983  0.900954565319384  1.0000
  Mg  Mg2       1.0  0.5773469721154911  0.8505180499961758  0.4102882273455412  1.0000
  C   C1        1.0  0.3935674600572519  0.5560025807175987  0.2649088465584018  1.0000
  C   C2        1.0  0.34597719275687117  0.5734541466259356  0.0866174002779791  1.0000
  C   C3        1.0  0.46122317271495566  0.7251792802271575  0.19159585352060185  1.0000
  C   C4        1.0  0.39065266852610525  0.7270284896351096  0.8891454691962373  1.0000
  C   C5        1.0  0.3627546718108722  0.3955527522900187  0.4685090237721791  1.0000
  C   C6        1.0  0.817181874657801  0.08732110411892657  0.8717983146059427  1.0000
  C   C7        1.0  0.08316336427621884  0.17378150416831903  0.29524490445742857  1.0000
  C   C8        1.0  0.9593453304609872  0.6375345648253192  0.6438848468570464  1.0000
  O   O1        1.0  0.39345763941063594  0.3839365066517189  0.6246024234969088  1.0000
  O   O2        1.0  0.6274519714072269  0.134586743413323  0.9921802732254406  1.0000
  O   O3        1.0  0.9776196309626135  0.3307210001286835  0.17151041137675826  1.0000
  O   O4        1.0  0.0016552779494310645  0.6208068419694126  0.783728234167355  1.0000
  O   O5        1.0  0.3550928124637878  0.2283307029147779  0.4832040088931963  1.0000
  O   O6        1.0  0.41174595012218973  0.6969078705571676  0.7328838801673343  1.0000
  O   O7        1.0  0.23398802963309132  0.0571650341155405  0.37581468479983715  1.0000
  O   O8        1.0  0.903197646208857  0.6432485872323996  0.5131717458199323  1.0000
  O   O9        1.0  0.6206181515178102  0.6861028780641454  0.24155481167927292  1.0000
  O   O10       1.0  0.4009854568620037  0.8767599040834926  0.9262896804126115  1.0000
  O   O11       1.0  0.24700970188809418  0.4703594303300684  0.12186151759021871  1.0000
  O   O12       1.0  0.9580615690987464  0.10478901624474728  0.7541526710771134  1.0000
data_image108
_chemical_formula_structural       Mg2C8O12
_chemical_formula_sum              "Mg2 C8 O12"
_cell_length_a       7.872530813609877
_cell_length_b       7.872530813609877
_cell_length_c       7.368803275525341
_cell_angle_alpha    62.34925540174321
_cell_angle_beta     62.34925540174321
_cell_angle_gamma    54.72736521231912

_space_group_name_H-M_alt    "P 1"
_space_group_IT_number       1

loop_
  _space_group_symop_operation_xyz
  'x, y, z'

loop_
  _atom_site_type_symbol
  _atom_site_label
  _atom_site_symmetry_multiplicity
  _atom_site_fract_x
  _atom_site_fract_y
  _atom_site_fract_z
  _atom_site_occupancy
  Mg  Mg1       1.0  0.2683042544357334  0.45268810015869565  0.8318900421214815  1.0000
  Mg  Mg2       1.0  0.4277294632304367  0.7855907040692807  0.4776160157088521  1.0000
  C   C1        1.0  0.43703815988857686  0.5145168177832679  0.2772160280090253  1.0000
  C   C2        1.0  0.26726536195353734  0.5962529323395566  0.18186369447104603  1.0000
  C   C3        1.0  0.5711741184320213  0.6214343265066584  0.12452889629251318  1.0000
  C   C4        1.0  0.36430778874236586  0.6843086263841561  0.968932193918549  1.0000
  C   C5        1.0  0.4714853495868676  0.36120794161354175  0.5087328540683116  1.0000
  C   C6        1.0  0.8367950832501789  0.11682973133106445  0.8859701144740177  1.0000
  C   C7        1.0  0.09441160443437657  0.16699081645217798  0.21178880801009203  1.0000
  C   C8        1.0  0.8684399784097242  0.754383862529446  0.5886693428725327  1.0000
  O   O1        1.0  0.5157288254282993  0.4444071007527725  0.6065721752946074  1.0000
  O   O2        1.0  0.6910068611556197  0.06486628855848275  0.9726755473054245  1.0000
  O   O3        1.0  0.12247310148736057  0.2539249440579195  0.02927382691371605  1.0000
  O   O4        1.0  0.9817163280451099  0.7620492919935313  0.6666243423807439  1.0000
  O   O5        1.0  0.46856326808405924  0.1863630021429311  0.6046427478283644  1.0000
  O   O6        1.0  0.2989131711176442  0.7498734216038788  0.7792314978909646  1.0000
  O   O7        1.0  0.11878031529014212  0.04890712379868451  0.3775209495680014  1.0000
  O   O8        1.0  0.7611283944658981  0.7753485014755901  0.5030003781100751  1.0000
  O   O9        1.0  0.5875677857492909  0.7113774115381608  0.21468672741986253  1.0000
  O   O10       1.0  0.5177727773862637  0.7376505042665669  0.9290866425071569  1.0000
  O   O11       1.0  0.22825479696932596  0.4466451689764583  0.18536567003503596  1.0000
  O   O12       1.0  0.004944686514424923  0.13131542436006305  0.831170627597335  1.0000
data_image109
_chemical_formula_structural       Mg2C8O12
_chemical_formula_sum              "Mg2 C8 O12"
_cell_length_a       7.872530813609877
_cell_length_b       7.872530813609877
_cell_length_c       7.368803275525341
_cell_angle_alpha    62.34925540174321
_cell_angle_beta     62.34925540174321
_cell_angle_gamma    54.72736521231912

_space_group_name_H-M_alt    "P 1"
_space_group_IT_number       1

loop_
  _space_group_symop_operation_xyz
  'x, y, z'

loop_
  _atom_site_type_symbol
  _atom_site_label
  _atom_site_symmetry_multiplicity
  _atom_site_fract_x
  _atom_site_fract_y
  _atom_site_fract_z
  _atom_site_occupancy
  Mg  Mg1       1.0  0.25104294684090395  0.45741031576842783  0.8921123052649463  1.0000
  Mg  Mg2       1.0  0.49528877428364293  0.7733151641229578  0.48007936798244844  1.0000
  C   C1        1.0  0.45591990514585695  0.5036738758259706  0.2928908254319521  1.0000
  C   C2        1.0  0.37466787153100733  0.5102477139204484  0.1410544213610498  1.0000
  C   C3        1.0  0.4965790412675456  0.6769429703469183  0.1845256924602031  1.0000
  C   C4        1.0  0.33810414905743397  0.7348950802098527  0.9770581936493835  1.0000
  C   C5        1.0  0.391630018494592  0.3976834921698988  0.5255341459919511  1.0000
  C   C6        1.0  0.8854253111516359  0.10997176993648483  0.8313321504979452  1.0000
  C   C7        1.0  0.1418181172895594  0.1342784234736709  0.19424901060803745  1.0000
  C   C8        1.0  0.881094991316873  0.6770889934183969  0.5013889474159994  1.0000
  O   O1        1.0  0.452865327282163  0.4733487128453052  0.6323728205267605  1.0000
  O   O2        1.0  0.9238008565738545  0.9296849400432959  0.9677497213799537  1.0000
  O   O3        1.0  0.04386027154768968  0.2875821690756122  0.0716508937422844  1.0000
  O   O4        1.0  0.029248060155562246  0.6827711024840314  0.4849495061384601  1.0000
  O   O5        1.0  0.34007465258045433  0.25625053956704996  0.6460583707628209  1.0000
  O   O6        1.0  0.31671196844092364  0.7746653385529543  0.8060773423862397  1.0000
  O   O7        1.0  0.2008211769565275  0.04564854886947121  0.35271575977661507  1.0000
  O   O8        1.0  0.7168508465234924  0.67659534103542  0.5543144522851369  1.0000
  O   O9        1.0  0.5931372234448136  0.7336608220384869  0.23001841778471852  1.0000
  O   O10       1.0  0.43192301816681805  0.8217378415763158  0.012845165840266543  1.0000
  O   O11       1.0  0.26571779011969343  0.41139341473433116  0.18676254970373354  1.0000
  O   O12       1.0  0.8630883851437199  0.2847651129550245  0.7359913615071059  1.0000
data_image110
_chemical_formula_structural       Mg2C8O12
_chemical_formula_sum              "Mg2 C8 O12"
_cell_length_a       7.872530813609877
_cell_length_b       7.872530813609877
_cell_length_c       7.368803275525341
_cell_angle_alpha    62.34925540174321
_cell_angle_beta     62.34925540174321
_cell_angle_gamma    54.72736521231912

_space_group_name_H-M_alt    "P 1"
_space_group_IT_number       1

loop_
  _space_group_symop_operation_xyz
  'x, y, z'

loop_
  _atom_site_type_symbol
  _atom_site_label
  _atom_site_symmetry_multiplicity
  _atom_site_fract_x
  _atom_site_fract_y
  _atom_site_fract_z
  _atom_site_occupancy
  Mg  Mg1       1.0  0.17501420150105296  0.46328047443516374  0.012910585121845619  1.0000
  Mg  Mg2       1.0  0.42098070385501596  0.7687738559921837  0.4962409240995882  1.0000
  C   C1        1.0  0.5262738686147063  0.48496186258310575  0.25270108165783467  1.0000
  C   C2        1.0  0.4083018680084356  0.5594864616279482  0.12859601066715856  1.0000
  C   C3        1.0  0.5755529878241715  0.665826274661174  0.15308324690831643  1.0000
  C   C4        1.0  0.46700131909261944  0.7205991900123793  0.9161023326825164  1.0000
  C   C5        1.0  0.4199385838527804  0.3936417125186772  0.5079126585007655  1.0000
  C   C6        1.0  0.8345382448700884  0.08852950493707956  0.8266573178362153  1.0000
  C   C7        1.0  0.14361625994080462  0.0991871685793956  0.2588615525417606  1.0000
  C   C8        1.0  0.8611862425605206  0.7171145062324292  0.5157625992650008  1.0000
  O   O1        1.0  0.2815705802565702  0.5543562049191993  0.60213578013029  1.0000
  O   O2        1.0  0.8988268480983352  0.016412864773190927  0.9780629171367414  1.0000
  O   O3        1.0  0.09094210434273631  0.21304560127775293  0.08617882658928222  1.0000
  O   O4        1.0  0.8380940551657927  0.8948500173569801  0.47664197112623974  1.0000
  O   O5        1.0  0.46792755490829635  0.20742049452720765  0.6054241183549622  1.0000
  O   O6        1.0  0.36496112658376484  0.856754485026479  0.7530938025728544  1.0000
  O   O7        1.0  0.16050804356695364  0.9365319926470685  0.420551424692009  1.0000
  O   O8        1.0  0.8865057427116523  0.5473386184845725  0.5403637348227854  1.0000
  O   O9        1.0  0.6547226690772214  0.714481861392186  0.21872222463775648  1.0000
  O   O10       1.0  0.5406210894878737  0.8051417157415798  0.9641369260604595  1.0000
  O   O11       1.0  0.2824920767888844  0.4756470850190962  0.17932597412632945  1.0000
  O   O12       1.0  0.734361685656431  0.16792568567214047  0.7142909475357804  1.0000
data_image111
_chemical_formula_structural       Mg2C8O12
_chemical_formula_sum              "Mg2 C8 O12"
_cell_length_a       7.872530813609877
_cell_length_b       7.872530813609877
_cell_length_c       7.368803275525341
_cell_angle_alpha    62.34925540174321
_cell_angle_beta     62.34925540174321
_cell_angle_gamma    54.72736521231912

_space_group_name_H-M_alt    "P 1"
_space_group_IT_number       1

loop_
  _space_group_symop_operation_xyz
  'x, y, z'

loop_
  _atom_site_type_symbol
  _atom_site_label
  _atom_site_symmetry_multiplicity
  _atom_site_fract_x
  _atom_site_fract_y
  _atom_site_fract_z
  _atom_site_occupancy
  Mg  Mg1       1.0  0.1326426138490156  0.5055194712134048  0.9172696084304518  1.0000
  Mg  Mg2       1.0  0.36623997655273977  0.7459551589895297  0.609439325763087  1.0000
  C   C1        1.0  0.39185371764144694  0.5654798241640485  0.28887196597576076  1.0000
  C   C2        1.0  0.3672528251535775  0.5916073777931876  0.0778976144655546  1.0000
  C   C3        1.0  0.5726640119509755  0.6123831743614023  0.22735266730129625  1.0000
  C   C4        1.0  0.5222467012106365  0.6659518689602184  0.8979493719147372  1.0000
  C   C5        1.0  0.3072934771334891  0.4554460150598664  0.48907261437118954  1.0000
  C   C6        1.0  0.8200021282896708  0.09084266556392406  0.9136300062027947  1.0000
  C   C7        1.0  0.1042622791707446  0.14800576217426398  0.24569351843568232  1.0000
  C   C8        1.0  0.907513244144142  0.7047000567013212  0.48814854395603824  1.0000
  O   O1        1.0  0.3076906037695164  0.5092757116688806  0.6394981139845514  1.0000
  O   O2        1.0  0.005291933756312428  0.02037529254791659  0.9089113113312213  1.0000
  O   O3        1.0  0.15268224889299598  0.20020783104283948  0.056847437673790635  1.0000
  O   O4        1.0  0.9259997093738339  0.8303004065446902  0.5322348587295467  1.0000
  O   O5        1.0  0.348584444491608  0.257775379549195  0.5340452335282629  1.0000
  O   O6        1.0  0.5391965069327113  0.7512179069115674  0.7046055338579069  1.0000
  O   O7        1.0  0.11948139622997679  0.10220349513733828  0.41842430696624455  1.0000
  O   O8        1.0  0.8987336096428059  0.5783904604809615  0.46799127383387695  1.0000
  O   O9        1.0  0.6548365237700542  0.6706330476737474  0.2910986400135614  1.0000
  O   O10       1.0  0.6372409770248133  0.67296511893992  0.014813537622472195  1.0000
  O   O11       1.0  0.285786664057574  0.5254084928136501  0.012766061701147116  1.0000
  O   O12       1.0  0.6555628352354117  0.16383791284028584  0.879321135618891  1.0000
data_image112
_chemical_formula_structural       Mg2C8O12
_chemical_formula_sum              "Mg2 C8 O12"
_cell_length_a       7.872530813609877
_cell_length_b       7.872530813609877
_cell_length_c       7.368803275525341
_cell_angle_alpha    62.34925540174321
_cell_angle_beta     62.34925540174321
_cell_angle_gamma    54.72736521231912

_space_group_name_H-M_alt    "P 1"
_space_group_IT_number       1

loop_
  _space_group_symop_operation_xyz
  'x, y, z'

loop_
  _atom_site_type_symbol
  _atom_site_label
  _atom_site_symmetry_multiplicity
  _atom_site_fract_x
  _atom_site_fract_y
  _atom_site_fract_z
  _atom_site_occupancy
  Mg  Mg1       1.0  0.13192806613037794  0.4490370764466858  0.9243455049916537  1.0000
  Mg  Mg2       1.0  0.31805703862875856  0.7569686841491017  0.5835354009106412  1.0000
  C   C1        1.0  0.4401672197898401  0.4798606391276325  0.2756257943654575  1.0000
  C   C2        1.0  0.41465058565399565  0.46381850162066235  0.06851262099568903  1.0000
  C   C3        1.0  0.5536596162280241  0.6059959478136195  0.19537059225327152  1.0000
  C   C4        1.0  0.5775101604311836  0.5664399678275253  0.8971169840363364  1.0000
  C   C5        1.0  0.38027416409375925  0.4071905866132941  0.5217769276281706  1.0000
  C   C6        1.0  0.8546141961528981  0.13619650023294794  0.958915888142853  1.0000
  C   C7        1.0  0.08724700920978656  0.2034377615386065  0.28148651048999174  1.0000
  C   C8        1.0  0.9444404875926118  0.7928518461014481  0.3289474444474445  1.0000
  O   O1        1.0  0.3210943860734702  0.48842262458896973  0.6541296984426797  1.0000
  O   O2        1.0  0.017417926781594595  0.11985602183578847  0.8359621963939283  1.0000
  O   O3        1.0  0.1451404023583578  0.20941126522691764  0.09332347215417114  1.0000
  O   O4        1.0  0.998316643046381  0.8469803267535863  0.40983820102002966  1.0000
  O   O5        1.0  0.29289771556066124  0.28231328303249725  0.5890707429081654  1.0000
  O   O6        1.0  0.4179337323304214  0.7706058312201322  0.8036166882132172  1.0000
  O   O7        1.0  0.09496473878159974  0.158518389494964  0.46059482808907126  1.0000
  O   O8        1.0  0.8896443751771923  0.7097921091503223  0.288390293795431  1.0000
  O   O9        1.0  0.5284363431085608  0.762720618590878  0.24525125593753147  1.0000
  O   O10       1.0  0.7121100384021526  0.5505070963813007  0.9782689307860164  1.0000
  O   O11       1.0  0.2577217519476771  0.46559268279710947  0.07591186533836145  1.0000
  O   O12       1.0  0.73341189479578  0.12302158083454419  0.130386690145193  1.0000
data_image113
_chemical_formula_structural       Mg2C8O12
_chemical_formula_sum              "Mg2 C8 O12"
_cell_length_a       7.872530813609877
_cell_length_b       7.872530813609877
_cell_length_c       7.368803275525341
_cell_angle_alpha    62.34925540174321
_cell_angle_beta     62.34925540174321
_cell_angle_gamma    54.72736521231912

_space_group_name_H-M_alt    "P 1"
_space_group_IT_number       1

loop_
  _space_group_symop_operation_xyz
  'x, y, z'

loop_
  _atom_site_type_symbol
  _atom_site_label
  _atom_site_symmetry_multiplicity
  _atom_site_fract_x
  _atom_site_fract_y
  _atom_site_fract_z
  _atom_site_occupancy
  Mg  Mg1       1.0  0.3289335462583348  0.2648653174218567  0.8739486033725806  1.0000
  Mg  Mg2       1.0  0.3553759843892439  0.7694163099565038  0.5254406209721697  1.0000
  C   C1        1.0  0.42990484378225413  0.5010981110014427  0.25414157193787146  1.0000
  C   C2        1.0  0.32949783410816325  0.5761850416995047  0.08008125440280982  1.0000
  C   C3        1.0  0.5371312117653599  0.6460140853080697  0.15270317837297917  1.0000
  C   C4        1.0  0.5008699106075796  0.6617410728709163  0.882809029461942  1.0000
  C   C5        1.0  0.380101274192856  0.42057905639086457  0.5030155373041447  1.0000
  C   C6        1.0  0.823365005733782  0.18796862824729454  0.013289221418656627  1.0000
  C   C7        1.0  0.06455243621828788  0.16641806634391884  0.3586425536076121  1.0000
  C   C8        1.0  0.9304667934279922  0.7624771662919819  0.39515546156809966  1.0000
  O   O1        1.0  0.3355781680731381  0.5354972981992212  0.5862394759081221  1.0000
  O   O2        1.0  0.9449385012954794  0.24841504595559405  0.8743537856480099  1.0000
  O   O3        1.0  0.9714956893020409  0.3033272341119586  0.23784142289934662  1.0000
  O   O4        1.0  0.9299621637247076  0.8983518448493016  0.4162986910893687  1.0000
  O   O5        1.0  0.3366984855826058  0.2509352224582212  0.6055918201263533  1.0000
  O   O6        1.0  0.5636167978106538  0.6618899589265936  0.6950952782618848  1.0000
  O   O7        1.0  0.09043404803698804  0.03921711554697408  0.5108139405622965  1.0000
  O   O8        1.0  0.9132820829589017  0.6423515065867569  0.35214216916912866  1.0000
  O   O9        1.0  0.5204874813781841  0.7823924654330326  0.21685419372864811  1.0000
  O   O10       1.0  0.6663750080962023  0.6229365857147817  0.9512040392866252  1.0000
  O   O11       1.0  0.26298218393777634  0.45083993395793287  0.06907487705615356  1.0000
  O   O12       1.0  0.7117582828393634  0.11198193474184075  0.12878294417101493  1.0000
data_image114
_chemical_formula_structural       Mg2C8O12
_chemical_formula_sum              "Mg2 C8 O12"
_cell_length_a       7.872530813609877
_cell_length_b       7.872530813609877
_cell_length_c       7.368803275525341
_cell_angle_alpha    62.34925540174321
_cell_angle_beta     62.34925540174321
_cell_angle_gamma    54.72736521231912

_space_group_name_H-M_alt    "P 1"
_space_group_IT_number       1

loop_
  _space_group_symop_operation_xyz
  'x, y, z'

loop_
  _atom_site_type_symbol
  _atom_site_label
  _atom_site_symmetry_multiplicity
  _atom_site_fract_x
  _atom_site_fract_y
  _atom_site_fract_z
  _atom_site_occupancy
  Mg  Mg1       1.0  0.3138536939369941  0.13753962132661302  0.86560290055739  1.0000
  Mg  Mg2       1.0  0.3086555179107995  0.8010039413826489  0.5512352965189274  1.0000
  C   C1        1.0  0.4460263873098814  0.507609822435924  0.22980860791816404  1.0000
  C   C2        1.0  0.5058542211610888  0.4492464513734544  0.0338963255474733  1.0000
  C   C3        1.0  0.4671579110956047  0.739221305019942  0.13696623535735522  1.0000
  C   C4        1.0  0.5183309823746278  0.6380509356787238  0.8550093159743536  1.0000
  C   C5        1.0  0.3529840332582449  0.41022330348431024  0.47373854892958833  1.0000
  C   C6        1.0  0.028327306817039766  0.025705387833060866  0.9422514268550279  1.0000
  C   C7        1.0  0.9746589116019548  0.3123548516067898  0.3999341241290828  1.0000
  C   C8        1.0  0.8730044923397464  0.8008306029583893  0.47009765741051535  1.0000
  O   O1        1.0  0.28219230802159656  0.4977181176096092  0.6204415431268875  1.0000
  O   O2        1.0  0.056059928460583386  0.1368782295619746  0.9984672486691208  1.0000
  O   O3        1.0  0.862286932177843  0.48126634846105726  0.30349043841918144  1.0000
  O   O4        1.0  0.7787853098740712  0.9673485891147009  0.4928989517455342  1.0000
  O   O5        1.0  0.37326128423028826  0.22753108603530153  0.5146021036723175  1.0000
  O   O6        1.0  0.45731251589956023  0.7424196377562298  0.6944029177175668  1.0000
  O   O7        1.0  0.09834893681995253  0.11367662114077105  0.4669441391754039  1.0000
  O   O8        1.0  0.9545693595224394  0.6171205272962852  0.4724400270473641  1.0000
  O   O9        1.0  0.4221656790582313  0.8674653116390768  0.2516090253964187  1.0000
  O   O10       1.0  0.47504473816053205  0.7991349119297335  0.9452337256580173  1.0000
  O   O11       1.0  0.5191584694934209  0.28460359455101636  0.04454353789847735  1.0000
  O   O12       1.0  0.9349259845202105  0.9864159211700126  0.8861259824542992  1.0000
data_image115
_chemical_formula_structural       Mg2C8O12
_chemical_formula_sum              "Mg2 C8 O12"
_cell_length_a       7.872530813609877
_cell_length_b       7.872530813609877
_cell_length_c       7.368803275525341
_cell_angle_alpha    62.34925540174321
_cell_angle_beta     62.34925540174321
_cell_angle_gamma    54.72736521231912

_space_group_name_H-M_alt    "P 1"
_space_group_IT_number       1

loop_
  _space_group_symop_operation_xyz
  'x, y, z'

loop_
  _atom_site_type_symbol
  _atom_site_label
  _atom_site_symmetry_multiplicity
  _atom_site_fract_x
  _atom_site_fract_y
  _atom_site_fract_z
  _atom_site_occupancy
  Mg  Mg1       1.0  0.34922894904571  0.2085277509632648  0.7772752674913279  1.0000
  Mg  Mg2       1.0  0.22751057088619264  0.7750888175823591  0.6024774774572721  1.0000
  C   C1        1.0  0.44941151828193454  0.5610838424424041  0.21700690803641554  1.0000
  C   C2        1.0  0.5700899395925214  0.4894007986589418  0.9934260940696946  1.0000
  C   C3        1.0  0.43022030946642714  0.7761631462681609  0.16554613280957362  1.0000
  C   C4        1.0  0.5144479478264365  0.7036446081492779  0.8344110595296583  1.0000
  C   C5        1.0  0.37540580339952423  0.4242002722849205  0.4240499590548096  1.0000
  C   C6        1.0  0.044752410278217525  0.8877397431821143  0.029557654572211156  1.0000
  C   C7        1.0  0.9063671135882231  0.3169075539203146  0.3742856019980354  1.0000
  C   C8        1.0  0.870186925906156  0.7946006098949409  0.5475921548676712  1.0000
  O   O1        1.0  0.2995801488204842  0.5069333521459178  0.5931661846956353  1.0000
  O   O2        1.0  0.03761289367172305  0.0024367108764351553  0.09636059728616975  1.0000
  O   O3        1.0  0.9027590999358169  0.40896779885491574  0.19957792656763806  1.0000
  O   O4        1.0  0.8215911589034851  0.9362614954475814  0.6080723058205122  1.0000
  O   O5        1.0  0.34877501651319825  0.2548460113044034  0.4898339760961622  1.0000
  O   O6        1.0  0.49125641674069637  0.7603136922957552  0.6420055397535026  1.0000
  O   O7        1.0  0.9734398403548483  0.20592777134675663  0.5220803520594632  1.0000
  O   O8        1.0  0.9252509483271626  0.6380553644591034  0.5116383814748704  1.0000
  O   O9        1.0  0.3376641992127425  0.9098230374806169  0.2550516387550512  1.0000
  O   O10       1.0  0.5012714485661204  0.8369970353933917  0.9238919082522813  1.0000
  O   O11       1.0  0.6149822667935825  0.3237428130638331  0.9476485171643066  1.0000
  O   O12       1.0  0.033727847254881205  0.8162316043557066  0.9240537933560098  1.0000
data_image116
_chemical_formula_structural       Mg2C8O12
_chemical_formula_sum              "Mg2 C8 O12"
_cell_length_a       7.872530813609877
_cell_length_b       7.872530813609877
_cell_length_c       7.368803275525341
_cell_angle_alpha    62.34925540174321
_cell_angle_beta     62.34925540174321
_cell_angle_gamma    54.72736521231912

_space_group_name_H-M_alt    "P 1"
_space_group_IT_number       1

loop_
  _space_group_symop_operation_xyz
  'x, y, z'

loop_
  _atom_site_type_symbol
  _atom_site_label
  _atom_site_symmetry_multiplicity
  _atom_site_fract_x
  _atom_site_fract_y
  _atom_site_fract_z
  _atom_site_occupancy
  Mg  Mg1       1.0  0.4238821285880097  0.12221342238829602  0.7159464000663421  1.0000
  Mg  Mg2       1.0  0.33126281608735053  0.7387940867614624  0.609419011094506  1.0000
  C   C1        1.0  0.4262709276700072  0.5931761287154306  0.2019061869740659  1.0000
  C   C2        1.0  0.5137451337792958  0.5587598944771001  0.9879595753694359  1.0000
  C   C3        1.0  0.42567211525920695  0.7639269709598913  0.1735524480879971  1.0000
  C   C4        1.0  0.4994399556380389  0.7580007046376289  0.8594043443937928  1.0000
  C   C5        1.0  0.3941766547909672  0.4181346538559052  0.3793208145767825  1.0000
  C   C6        1.0  0.034264348450838256  0.8510939114135282  0.02858934078614017  1.0000
  C   C7        1.0  0.9447586154917021  0.26436779322483817  0.4204943252745983  1.0000
  C   C8        1.0  0.8666925497557467  0.8327351659538096  0.5319048658720216  1.0000
  O   O1        1.0  0.3101952566000301  0.4823238338222179  0.5560666169603521  1.0000
  O   O2        1.0  0.9424155392217346  0.03842242033807519  0.00121605322234708  1.0000
  O   O3        1.0  0.7864260208103561  0.36300143139873536  0.3666388646747678  1.0000
  O   O4        1.0  0.8492367696372123  0.9407862767320039  0.6157633652469778  1.0000
  O   O5        1.0  0.36720518806147473  0.2585271994719329  0.40434452532698434  1.0000
  O   O6        1.0  0.4189977973667289  0.8974565204482056  0.6823646845918685  1.0000
  O   O7        1.0  0.062434845197397844  0.13461575255786654  0.5217122416349296  1.0000
  O   O8        1.0  0.8792684757715005  0.7444831089076047  0.4321499384079541  1.0000
  O   O9        1.0  0.34020247033834394  0.901295890468378  0.2821778587840694  1.0000
  O   O10       1.0  0.4525697598803228  0.8832315378638389  0.9719194988246962  1.0000
  O   O11       1.0  0.54228837190514  0.40481929020481416  0.9460760690601911  1.0000
  O   O12       1.0  0.10638185930885369  0.6750059136955031  0.016832407798159026  1.0000
data_image117
_chemical_formula_structural       Mg2C8O12
_chemical_formula_sum              "Mg2 C8 O12"
_cell_length_a       7.872530813609877
_cell_length_b       7.872530813609877
_cell_length_c       7.368803275525341
_cell_angle_alpha    62.34925540174321
_cell_angle_beta     62.34925540174321
_cell_angle_gamma    54.72736521231912

_space_group_name_H-M_alt    "P 1"
_space_group_IT_number       1

loop_
  _space_group_symop_operation_xyz
  'x, y, z'

loop_
  _atom_site_type_symbol
  _atom_site_label
  _atom_site_symmetry_multiplicity
  _atom_site_fract_x
  _atom_site_fract_y
  _atom_site_fract_z
  _atom_site_occupancy
  Mg  Mg1       1.0  0.4362381465003472  0.1562303827870174  0.703364861105946  1.0000
  Mg  Mg2       1.0  0.4170852204411729  0.6290923045273331  0.6264003174532795  1.0000
  C   C1        1.0  0.4079068810735038  0.5969796023136035  0.15567847279955108  1.0000
  C   C2        1.0  0.4851582566383792  0.5454726866904802  0.9798875391597621  1.0000
  C   C3        1.0  0.48877168494193163  0.7052423282823875  0.17376536607611728  1.0000
  C   C4        1.0  0.5178847715350585  0.733687749843077  0.8248574357505136  1.0000
  C   C5        1.0  0.3760656761561161  0.4120034266685135  0.37120498983034117  1.0000
  C   C6        1.0  0.8683283571227352  0.9856508243766796  0.05534753873411935  1.0000
  C   C7        1.0  0.9115042137232848  0.2867735098470553  0.49334739829431595  1.0000
  C   C8        1.0  0.9013257675835792  0.8484891591593565  0.5270166519269082  1.0000
  O   O1        1.0  0.4749212296692207  0.40136448404003194  0.4880814617609019  1.0000
  O   O2        1.0  0.7579841760868342  0.07872431342736053  0.19079001637334791  1.0000
  O   O3        1.0  0.8631631684912415  0.33041820890590573  0.35196422993999454  1.0000
  O   O4        1.0  0.8126214631909848  0.012545824237968128  0.5898991940211706  1.0000
  O   O5        1.0  0.29637571069547475  0.29322342508006427  0.4188350935679095  1.0000
  O   O6        1.0  0.5351990780063887  0.7934135164449304  0.6300211032814838  1.0000
  O   O7        1.0  0.9724938803416672  0.1685792004111059  0.6509980006442508  1.0000
  O   O8        1.0  0.9907904850004821  0.6944482480474965  0.46080990192293325  1.0000
  O   O9        1.0  0.43242777350035944  0.825799956600912  0.2714507595143213  1.0000
  O   O10       1.0  0.4837827572926237  0.8704498654798558  0.9137241084043644  1.0000
  O   O11       1.0  0.48831689704947057  0.43614745080657624  0.8908308628458432  1.0000
  O   O12       1.0  0.9102425581374995  0.8789522068157952  0.9353165965295919  1.0000
data_image118
_chemical_formula_structural       Mg2C8O12
_chemical_formula_sum              "Mg2 C8 O12"
_cell_length_a       7.872530813609877
_cell_length_b       7.872530813609877
_cell_length_c       7.368803275525341
_cell_angle_alpha    62.34925540174321
_cell_angle_beta     62.34925540174321
_cell_angle_gamma    54.72736521231912

_space_group_name_H-M_alt    "P 1"
_space_group_IT_number       1

loop_
  _space_group_symop_operation_xyz
  'x, y, z'

loop_
  _atom_site_type_symbol
  _atom_site_label
  _atom_site_symmetry_multiplicity
  _atom_site_fract_x
  _atom_site_fract_y
  _atom_site_fract_z
  _atom_site_occupancy
  Mg  Mg1       1.0  0.215121069678838  0.17982570396666142  0.6280185752843508  1.0000
  Mg  Mg2       1.0  0.6088990729187047  0.5736467344838341  0.4946177871776394  1.0000
  C   C1        1.0  0.4682074245618469  0.5313120712239067  0.16995932900110827  1.0000
  C   C2        1.0  0.49666729660598147  0.5452069862392247  0.9440244874193979  1.0000
  C   C3        1.0  0.48228834943923193  0.7156974072121762  0.1551575038121098  1.0000
  C   C4        1.0  0.5045177830792906  0.7491170132083912  0.8290464159415387  1.0000
  C   C5        1.0  0.3459186682933768  0.44056394511364083  0.37299278400740815  1.0000
  C   C6        1.0  0.7905136055292084  0.9784252426898689  0.18220473486484356  1.0000
  C   C7        1.0  0.04699787945994105  0.2338539586216927  0.44879193055218014  1.0000
  C   C8        1.0  0.904328139349713  0.87257235476205  0.5633659533109507  1.0000
  O   O1        1.0  0.3573740499267296  0.39933734501221074  0.553464440255712  1.0000
  O   O2        1.0  0.6915572773631402  0.018919134079729893  0.3505079446159871  1.0000
  O   O3        1.0  0.9041458094475654  0.4202071002729855  0.4003099471199041  1.0000
  O   O4        1.0  0.760057297754283  0.9604332314765934  0.7015346307208301  1.0000
  O   O5        1.0  0.20719861193048666  0.40074189485626316  0.33931449480590425  1.0000
  O   O6        1.0  0.5058717253743735  0.8279061467383702  0.6308763243977052  1.0000
  O   O7        1.0  0.13423902028414147  0.04065514282810152  0.530555867299948  1.0000
  O   O8        1.0  0.06372768343315939  0.8150707290495436  0.4308588491099081  1.0000
  O   O9        1.0  0.4360127610328397  0.7798631889155224  0.3052278550279095  1.0000
  O   O10       1.0  0.47759838435418644  0.8664619848848653  0.9389755740279945  1.0000
  O   O11       1.0  0.5604040118991818  0.43045858919978713  0.8348194954810967  1.0000
  O   O12       1.0  0.9016002186651288  0.90855189973404  0.028226879947629728  1.0000
data_image119
_chemical_formula_structural       Mg2C8O12
_chemical_formula_sum              "Mg2 C8 O12"
_cell_length_a       7.872530813609877
_cell_length_b       7.872530813609877
_cell_length_c       7.368803275525341
_cell_angle_alpha    62.34925540174321
_cell_angle_beta     62.34925540174321
_cell_angle_gamma    54.72736521231912

_space_group_name_H-M_alt    "P 1"
_space_group_IT_number       1

loop_
  _space_group_symop_operation_xyz
  'x, y, z'

loop_
  _atom_site_type_symbol
  _atom_site_label
  _atom_site_symmetry_multiplicity
  _atom_site_fract_x
  _atom_site_fract_y
  _atom_site_fract_z
  _atom_site_occupancy
  Mg  Mg1       1.0  0.3480947390530939  0.14079236104431347  0.5834768263086644  1.0000
  Mg  Mg2       1.0  0.5097180353034825  0.5574349497071063  0.5985469835434478  1.0000
  C   C1        1.0  0.5548593017706471  0.5248622650378455  0.17140350766021994  1.0000
  C   C2        1.0  0.5356788531396488  0.5265903084714063  0.9758618134255215  1.0000
  C   C3        1.0  0.44777308426197393  0.7405584378087985  0.18474639590078556  1.0000
  C   C4        1.0  0.40094504475564335  0.7467393080294307  0.9099854251150089  1.0000
  C   C5        1.0  0.46029227856535393  0.42233082365889435  0.3590352794732337  1.0000
  C   C6        1.0  0.7855537651748334  0.8982600185307685  0.16621208042631175  1.0000
  C   C7        1.0  0.9962056692296489  0.2897690848246497  0.39634358043035345  1.0000
  C   C8        1.0  0.8980038447549638  0.8986795223943274  0.4718074198847635  1.0000
  O   O1        1.0  0.4538205657284242  0.35957148672292255  0.5690448659381644  1.0000
  O   O2        1.0  0.6544014864784662  0.03697821114125954  0.2600431174843495  1.0000
  O   O3        1.0  0.8356269576439904  0.4007167369477629  0.34890671704987897  1.0000
  O   O4        1.0  0.7816524184723271  0.917537253852901  0.6430928144073942  1.0000
  O   O5        1.0  0.2908038608207611  0.4306349129851311  0.33214898785328556  1.0000
  O   O6        1.0  0.37000691678543135  0.8390892522855606  0.7096978032994894  1.0000
  O   O7        1.0  0.09236353948976118  0.24478402135655197  0.5110877581820803  1.0000
  O   O8        1.0  0.061114170776710754  0.8649810281465466  0.3345840200754169  1.0000
  O   O9        1.0  0.4153655950866322  0.7829106791943723  0.35513396829959165  1.0000
  O   O10       1.0  0.35884456552929433  0.9005926340481284  0.005319061055536008  1.0000
  O   O11       1.0  0.6523632318297521  0.40888734085170164  0.838486922506161  1.0000
  O   O12       1.0  0.9487586503675134  0.7812623929498708  0.07106264992423329  1.0000
data_image120
_chemical_formula_structural       Mg2C8O12
_chemical_formula_sum              "Mg2 C8 O12"
_cell_length_a       7.872530813609877
_cell_length_b       7.872530813609877
_cell_length_c       7.368803275525341
_cell_angle_alpha    62.34925540174321
_cell_angle_beta     62.34925540174321
_cell_angle_gamma    54.72736521231912

_space_group_name_H-M_alt    "P 1"
_space_group_IT_number       1

loop_
  _space_group_symop_operation_xyz
  'x, y, z'

loop_
  _atom_site_type_symbol
  _atom_site_label
  _atom_site_symmetry_multiplicity
  _atom_site_fract_x
  _atom_site_fract_y
  _atom_site_fract_z
  _atom_site_occupancy
  Mg  Mg1       1.0  0.4937876701942529  0.06419961041404354  0.5152746366911107  1.0000
  Mg  Mg2       1.0  0.4537869529984384  0.6135067744972802  0.6224283203618257  1.0000
  C   C1        1.0  0.4577309607857301  0.5892436603670823  0.2206043625192245  1.0000
  C   C2        1.0  0.5267373296291868  0.573608285074838  0.997590179077032  1.0000
  C   C3        1.0  0.4155118543182599  0.7939530730685656  0.19095598570171216  1.0000
  C   C4        1.0  0.477314610895876  0.7994178899642992  0.8649661588928426  1.0000
  C   C5        1.0  0.39715691544531906  0.4441477037423074  0.3878703790308434  1.0000
  C   C6        1.0  0.8815714976611435  0.872751351032336  0.027883806445663795  1.0000
  C   C7        1.0  0.8901471048842444  0.2748905927351437  0.5324545791935784  1.0000
  C   C8        1.0  0.9434239541588341  0.8533118151704451  0.4819390951955429  1.0000
  O   O1        1.0  0.4120990744019094  0.41106813662321395  0.5836675713594152  1.0000
  O   O2        1.0  0.7523933941101495  0.9310126418367239  0.1783410167575762  1.0000
  O   O3        1.0  0.7980881472711923  0.4787846357479851  0.4707289268391972  1.0000
  O   O4        1.0  0.7861569883097128  0.8867220421886708  0.633142165852447  1.0000
  O   O5        1.0  0.2889392239580341  0.3852623263484476  0.37637133216568414  1.0000
  O   O6        1.0  0.34806971762622013  0.88862875808998  0.7629727434270452  1.0000
  O   O7        1.0  0.00934321159402897  0.10219628424347138  0.49938083143228407  1.0000
  O   O8        1.0  0.09702797468642221  0.8237218277593523  0.336826321328364  1.0000
  O   O9        1.0  0.41672056373910826  0.8028435267579881  0.35759788438740625  1.0000
  O   O10       1.0  0.3962074799450639  0.949216741606854  0.992611134623444  1.0000
  O   O11       1.0  0.5517655242895894  0.4180298211130726  0.9304595700494168  1.0000
  O   O12       1.0  0.9909664293782332  0.8071843815130023  0.8717399783611643  1.0000
data_image121
_chemical_formula_structural       Mg2C8O12
_chemical_formula_sum              "Mg2 C8 O12"
_cell_length_a       7.872530813609877
_cell_length_b       7.872530813609877
_cell_length_c       7.368803275525341
_cell_angle_alpha    62.34925540174321
_cell_angle_beta     62.34925540174321
_cell_angle_gamma    54.72736521231912

_space_group_name_H-M_alt    "P 1"
_space_group_IT_number       1

loop_
  _space_group_symop_operation_xyz
  'x, y, z'

loop_
  _atom_site_type_symbol
  _atom_site_label
  _atom_site_symmetry_multiplicity
  _atom_site_fract_x
  _atom_site_fract_y
  _atom_site_fract_z
  _atom_site_occupancy
  Mg  Mg1       1.0  0.40656865670936404  0.07507231390512747  0.5160324210577584  1.0000
  Mg  Mg2       1.0  0.42217577535972417  0.6196831163512463  0.6645099801499647  1.0000
  C   C1        1.0  0.461209169120653  0.5927227159118386  0.23927889875958558  1.0000
  C   C2        1.0  0.5536678406389555  0.5510753693024171  0.029059051286692048  1.0000
  C   C3        1.0  0.5355399996024995  0.7222762647582296  0.21806784199640306  1.0000
  C   C4        1.0  0.4692954636529314  0.8010829999081464  0.8946235420511439  1.0000
  C   C5        1.0  0.34879868124143765  0.45762008884965244  0.4390381269840199  1.0000
  C   C6        1.0  0.014745656498083903  0.8364987609203538  0.9368519120556429  1.0000
  C   C7        1.0  0.8643402296935162  0.28416154814120265  0.5185899610078541  1.0000
  C   C8        1.0  0.8842116427488208  0.8725786769164913  0.43828651511599537  1.0000
  O   O1        1.0  0.3780555591706075  0.4408576227751865  0.5981247507369186  1.0000
  O   O2        1.0  0.8861327632543121  0.00753939329885589  0.9688154020133517  1.0000
  O   O3        1.0  0.7160733554934047  0.4313724999163943  0.5865025582532963  1.0000
  O   O4        1.0  0.6985241660722556  0.9929618565457948  0.5213964433091849  1.0000
  O   O5        1.0  0.26472300825592937  0.38176230312970655  0.402839727689474  1.0000
  O   O6        1.0  0.32931080506924026  0.8736747027627235  0.8054727332676145  1.0000
  O   O7        1.0  0.01394734928703377  0.1088721720580394  0.49746092420696164  1.0000
  O   O8        1.0  0.04227921805558282  0.8492166890912614  0.2977917019872114  1.0000
  O   O9        1.0  0.4490088688414937  0.8432085583233649  0.33282978824178316  1.0000
  O   O10       1.0  0.4914684391695437  0.8960314281396379  0.9901162735487238  1.0000
  O   O11       1.0  0.5136264706098511  0.44603055593313706  0.9775188466288848  1.0000
  O   O12       1.0  0.13698625692450772  0.6496581931243545  0.9436034710045836  1.0000
data_image122
_chemical_formula_structural       Mg2C8O12
_chemical_formula_sum              "Mg2 C8 O12"
_cell_length_a       7.872530813609877
_cell_length_b       7.872530813609877
_cell_length_c       7.368803275525341
_cell_angle_alpha    62.34925540174321
_cell_angle_beta     62.34925540174321
_cell_angle_gamma    54.72736521231912

_space_group_name_H-M_alt    "P 1"
_space_group_IT_number       1

loop_
  _space_group_symop_operation_xyz
  'x, y, z'

loop_
  _atom_site_type_symbol
  _atom_site_label
  _atom_site_symmetry_multiplicity
  _atom_site_fract_x
  _atom_site_fract_y
  _atom_site_fract_z
  _atom_site_occupancy
  Mg  Mg1       1.0  0.46535996369472205  0.06771027171474153  0.4143750644522008  1.0000
  Mg  Mg2       1.0  0.4486758568298028  0.5859134085366084  0.681028898124756  1.0000
  C   C1        1.0  0.450093982108081  0.5928325133733343  0.24176764407549525  1.0000
  C   C2        1.0  0.45835394006070307  0.5942112971839865  0.048118310218602356  1.0000
  C   C3        1.0  0.5139394121937065  0.7271601924307246  0.2065654549632427  1.0000
  C   C4        1.0  0.3993569534838476  0.8334090112827695  0.9228744276104489  1.0000
  C   C5        1.0  0.3221887439836749  0.48273574041877604  0.4611281013585428  1.0000
  C   C6        1.0  0.9045326674124237  0.8644186925060823  0.994592925652134  1.0000
  C   C7        1.0  0.960076676365337  0.21488749981144462  0.555960469026658  1.0000
  C   C8        1.0  0.8970596515703665  0.9014767756941118  0.4161014259727369  1.0000
  O   O1        1.0  0.2604043422706048  0.5528246069827023  0.6081657997305273  1.0000
  O   O2        1.0  0.8694361907600441  0.042956417184509155  0.9539985113314848  1.0000
  O   O3        1.0  0.8014266453155652  0.37898783196344593  0.5931415984659554  1.0000
  O   O4        1.0  0.7215014336792167  0.02459894538037699  0.4632549234185914  1.0000
  O   O5        1.0  0.27064724091840753  0.3732586743281617  0.4406236597493513  1.0000
  O   O6        1.0  0.38281015600573404  0.892090230979497  0.733665106287337  1.0000
  O   O7        1.0  0.15307936889705093  0.0785287117797763  0.48837515987160196  1.0000
  O   O8        1.0  0.036241340113515715  0.7861142604961635  0.3037872628772216  1.0000
  O   O9        1.0  0.5633449380361253  0.7290094480709369  0.34338093832394656  1.0000
  O   O10       1.0  0.4271119427926623  0.9208456254299278  0.03148477414835248  1.0000
  O   O11       1.0  0.4753545847809142  0.45117963564323366  0.012872063076904564  1.0000
  O   O12       1.0  0.9986698153549933  0.6838011857864705  0.9781810491496052  1.0000
data_image123
_chemical_formula_structural       Mg2C8O12
_chemical_formula_sum              "Mg2 C8 O12"
_cell_length_a       7.872530813609877
_cell_length_b       7.872530813609877
_cell_length_c       7.368803275525341
_cell_angle_alpha    62.34925540174321
_cell_angle_beta     62.34925540174321
_cell_angle_gamma    54.72736521231912

_space_group_name_H-M_alt    "P 1"
_space_group_IT_number       1

loop_
  _space_group_symop_operation_xyz
  'x, y, z'

loop_
  _atom_site_type_symbol
  _atom_site_label
  _atom_site_symmetry_multiplicity
  _atom_site_fract_x
  _atom_site_fract_y
  _atom_site_fract_z
  _atom_site_occupancy
  Mg  Mg1       1.0  0.46519394203323045  0.04002502413336739  0.36811245558309313  1.0000
  Mg  Mg2       1.0  0.47608812244847376  0.5328576249022776  0.7356418254177168  1.0000
  C   C1        1.0  0.41595340456498436  0.584712945476304  0.28381384875000837  1.0000
  C   C2        1.0  0.5059113041114602  0.5371809119406973  0.07594788168380184  1.0000
  C   C3        1.0  0.4297977979469739  0.7644846765722023  0.2332135643661212  1.0000
  C   C4        1.0  0.5174878596301228  0.7276637069605373  0.9158428550477552  1.0000
  C   C5        1.0  0.37532549771538404  0.44144558776101717  0.4854643535334775  1.0000
  C   C6        1.0  0.8686063665338721  0.9258454674879589  0.9143179662588077  1.0000
  C   C7        1.0  0.9391939929347466  0.2876485180469737  0.555700167536394  1.0000
  C   C8        1.0  0.8845065414863428  0.98893185658596  0.34884496527184017  1.0000
  O   O1        1.0  0.3280440252656174  0.4671342586132602  0.6753176820357467  1.0000
  O   O2        1.0  0.7742879941776837  0.04510565717657178  0.03572229975316621  1.0000
  O   O3        1.0  0.7845971629075366  0.4576875855206461  0.54553900708105  1.0000
  O   O4        1.0  0.7668902537419846  0.15756257155539655  0.41018376453577154  1.0000
  O   O5        1.0  0.32034195724932335  0.3110157757466401  0.5016837677774969  1.0000
  O   O6        1.0  0.49359738363958156  0.7834581606098725  0.7257357954813524  1.0000
  O   O7        1.0  0.09811858822080846  0.13954458856822585  0.46946203852622315  1.0000
  O   O8        1.0  0.9731536373521229  0.8212133739095968  0.2973228954565743  1.0000
  O   O9        1.0  0.5375888240661957  0.7639234674500611  0.3350727831688524  1.0000
  O   O10       1.0  0.47645971126008346  0.857132736290981  0.013969158687918887  1.0000
  O   O11       1.0  0.4380981053192022  0.4327497651135093  0.0526502847485864  1.0000
  O   O12       1.0  0.9028681682324418  0.7657790196430386  0.8998131349311413  1.0000
data_image124
_chemical_formula_structural       Mg2C8O12
_chemical_formula_sum              "Mg2 C8 O12"
_cell_length_a       7.872530813609877
_cell_length_b       7.872530813609877
_cell_length_c       7.368803275525341
_cell_angle_alpha    62.34925540174321
_cell_angle_beta     62.34925540174321
_cell_angle_gamma    54.72736521231912

_space_group_name_H-M_alt    "P 1"
_space_group_IT_number       1

loop_
  _space_group_symop_operation_xyz
  'x, y, z'

loop_
  _atom_site_type_symbol
  _atom_site_label
  _atom_site_symmetry_multiplicity
  _atom_site_fract_x
  _atom_site_fract_y
  _atom_site_fract_z
  _atom_site_occupancy
  Mg  Mg1       1.0  0.46270400738945666  0.186152262768004  0.24292566574105062  1.0000
  Mg  Mg2       1.0  0.4765137551224339  0.597255972888529  0.666035782383312  1.0000
  C   C1        1.0  0.41349964208803774  0.549147473447506  0.31232365395762435  1.0000
  C   C2        1.0  0.4160011441660401  0.5524895150095254  0.1218379904805331  1.0000
  C   C3        1.0  0.4475826346706114  0.7283172046838209  0.27127075113098315  1.0000
  C   C4        1.0  0.4788057471211126  0.6988387981619718  0.949229229651612  1.0000
  C   C5        1.0  0.3624363556367963  0.3989322183480102  0.49818304555205417  1.0000
  C   C6        1.0  0.869270393745611  0.8503954689039965  0.9725202680076859  1.0000
  C   C7        1.0  0.005866184793038576  0.3438989626802245  0.44105666533130417  1.0000
  C   C8        1.0  0.8604441222669825  0.9901938134904359  0.39074650055084414  1.0000
  O   O1        1.0  0.3153274322875598  0.46199472984015477  0.6745212331869995  1.0000
  O   O2        1.0  0.7271131745007435  0.9762146372912434  0.06879553942693406  1.0000
  O   O3        1.0  0.825196995260166  0.3495347385521743  0.5839401318992126  1.0000
  O   O4        1.0  0.8863910040454148  0.14927458394101722  0.3037407314984315  1.0000
  O   O5        1.0  0.42490835765170676  0.199126886764313  0.5312994026971618  1.0000
  O   O6        1.0  0.43129932583572267  0.8396469321937421  0.7694043818991297  1.0000
  O   O7        1.0  0.18188861146202248  0.19522496030369513  0.34718179378390324  1.0000
  O   O8        1.0  0.9363484060645132  0.780998197114281  0.44575028351608004  1.0000
  O   O9        1.0  0.44902921469984136  0.8136173918213158  0.3761810743038742  1.0000
  O   O10       1.0  0.4853321663982334  0.8260007044177683  0.0681211854228368  1.0000
  O   O11       1.0  0.3093071119002166  0.4796446557007448  0.10306599796285129  1.0000
  O   O12       1.0  0.9855128224470464  0.7206451060024572  0.8802102398062337  1.0000
data_image125
_chemical_formula_structural       Mg2C8O12
_chemical_formula_sum              "Mg2 C8 O12"
_cell_length_a       7.872530813609877
_cell_length_b       7.872530813609877
_cell_length_c       7.368803275525341
_cell_angle_alpha    62.34925540174321
_cell_angle_beta     62.34925540174321
_cell_angle_gamma    54.72736521231912

_space_group_name_H-M_alt    "P 1"
_space_group_IT_number       1

loop_
  _space_group_symop_operation_xyz
  'x, y, z'

loop_
  _atom_site_type_symbol
  _atom_site_label
  _atom_site_symmetry_multiplicity
  _atom_site_fract_x
  _atom_site_fract_y
  _atom_site_fract_z
  _atom_site_occupancy
  Mg  Mg1       1.0  0.45184549275729136  0.15276220408449248  0.2598890222845691  1.0000
  Mg  Mg2       1.0  0.5018026591291789  0.5848233737904496  0.718433593927639  1.0000
  C   C1        1.0  0.42339718595018144  0.5690142427998955  0.2905847138706756  1.0000
  C   C2        1.0  0.40383084687365406  0.5795690507027657  0.11682864203472776  1.0000
  C   C3        1.0  0.37181634391153123  0.7801210661023562  0.31167898246119724  1.0000
  C   C4        1.0  0.41739849834684956  0.7620828597035902  0.9784275930166245  1.0000
  C   C5        1.0  0.4013623149803036  0.40447569133292993  0.4988877389765048  1.0000
  C   C6        1.0  0.7482716651489525  0.883229131220279  0.9644780196700042  1.0000
  C   C7        1.0  0.9917183947891298  0.2993971168107535  0.5051846724506626  1.0000
  C   C8        1.0  0.9814498367993011  0.9212002616924837  0.32170222933357606  1.0000
  O   O1        1.0  0.35265890082968276  0.4304907043720957  0.6682566513983054  1.0000
  O   O2        1.0  0.7500520511841469  0.9658966384102682  0.07668430750495348  1.0000
  O   O3        1.0  0.838075102818262  0.3182778298653139  0.6666620499502611  1.0000
  O   O4        1.0  0.964643285549129  0.08959829954041787  0.21367463779119245  1.0000
  O   O5        1.0  0.49296634320797983  0.22440844582434394  0.4472188080016662  1.0000
  O   O6        1.0  0.45073264341867375  0.8436868425398307  0.7778608403862564  1.0000
  O   O7        1.0  0.12328019529608175  0.27311635912911847  0.33984437041103277  1.0000
  O   O8        1.0  0.9534674082216786  0.7668097317488629  0.4243650133000889  1.0000
  O   O9        1.0  0.40194325300746825  0.8207027417899133  0.4278472906720927  1.0000
  O   O10       1.0  0.3991773232061609  0.9053881432551308  0.055260867527925625  1.0000
  O   O11       1.0  0.462886025363717  0.4275911650843581  0.029354960108522968  1.0000
  O   O12       1.0  0.8304097112278261  0.7316920236647113  0.8985526307238175  1.0000
data_image126
_chemical_formula_structural       Mg2C8O12
_chemical_formula_sum              "Mg2 C8 O12"
_cell_length_a       7.872530813609877
_cell_length_b       7.872530813609877
_cell_length_c       7.368803275525341
_cell_angle_alpha    62.34925540174321
_cell_angle_beta     62.34925540174321
_cell_angle_gamma    54.72736521231912

_space_group_name_H-M_alt    "P 1"
_space_group_IT_number       1

loop_
  _space_group_symop_operation_xyz
  'x, y, z'

loop_
  _atom_site_type_symbol
  _atom_site_label
  _atom_site_symmetry_multiplicity
  _atom_site_fract_x
  _atom_site_fract_y
  _atom_site_fract_z
  _atom_site_occupancy
  Mg  Mg1       1.0  0.4941365312508686  0.15009889658234699  0.25975020561844536  1.0000
  Mg  Mg2       1.0  0.45840924821784057  0.6193307576337419  0.7304902617806045  1.0000
  C   C1        1.0  0.4970121479880955  0.5166257023455713  0.3221018150874022  1.0000
  C   C2        1.0  0.40524972906965356  0.5698675457034884  0.17718638295499697  1.0000
  C   C3        1.0  0.4823441720867078  0.7351356461691286  0.27797991860114113  1.0000
  C   C4        1.0  0.34331911312866314  0.7925937438213938  0.03459215812909861  1.0000
  C   C5        1.0  0.48828613941438825  0.3351940012559783  0.5142331517297013  1.0000
  C   C6        1.0  0.804342947024556  0.7847194264363747  0.9882727237610613  1.0000
  C   C7        1.0  0.8780396905900927  0.3797211821377146  0.4876610503291321  1.0000
  C   C8        1.0  0.9123244211843228  0.0014440595760014663  0.20860967270613773  1.0000
  O   O1        1.0  0.4559548192269117  0.3808431452212318  0.6752526048545595  1.0000
  O   O2        1.0  0.7437910555420841  0.9570967668857278  0.9828246851784916  1.0000
  O   O3        1.0  0.793822938102253  0.5251947830047355  0.5574465405815836  1.0000
  O   O4        1.0  0.9331467393229765  0.14680494161472746  0.18591031409928815  1.0000
  O   O5        1.0  0.48906116094095997  0.1734870045667384  0.5065146326845658  1.0000
  O   O6        1.0  0.37053310522104127  0.8605464253274712  0.8346792364864625  1.0000
  O   O7        1.0  0.020041341998969165  0.20643090181956059  0.4743003626215718  1.0000
  O   O8        1.0  0.9404005886798326  0.8274066394685076  0.23336911654093018  1.0000
  O   O9        1.0  0.4687357204990614  0.7991437154588067  0.40096207814512397  1.0000
  O   O10       1.0  0.4158663207759858  0.8832067042797574  0.11097213196282568  1.0000
  O   O11       1.0  0.46776525517155515  0.41455474711272017  0.08130640111038814  1.0000
  O   O12       1.0  0.867547392538683  0.638912329817226  0.945631248691799  1.0000
data_image127
_chemical_formula_structural       Mg2C8O12
_chemical_formula_sum              "Mg2 C8 O12"
_cell_length_a       7.872530813609877
_cell_length_b       7.872530813609877
_cell_length_c       7.368803275525341
_cell_angle_alpha    62.34925540174321
_cell_angle_beta     62.34925540174321
_cell_angle_gamma    54.72736521231912

_space_group_name_H-M_alt    "P 1"
_space_group_IT_number       1

loop_
  _space_group_symop_operation_xyz
  'x, y, z'

loop_
  _atom_site_type_symbol
  _atom_site_label
  _atom_site_symmetry_multiplicity
  _atom_site_fract_x
  _atom_site_fract_y
  _atom_site_fract_z
  _atom_site_occupancy
  Mg  Mg1       1.0  0.3574139507504619  0.14492061033161907  0.395142290123555  1.0000
  Mg  Mg2       1.0  0.6279835190620366  0.5672274073641672  0.6315635052499713  1.0000
  C   C1        1.0  0.356771145927461  0.5273254989580062  0.39348772145376343  1.0000
  C   C2        1.0  0.40964230911391314  0.5328190846751358  0.17305846248964663  1.0000
  C   C3        1.0  0.3806141548160439  0.7285986451287533  0.33528819036129637  1.0000
  C   C4        1.0  0.4135548007996735  0.7290970093215757  0.01562580695163783  1.0000
  C   C5        1.0  0.46348607219656335  0.3419180957990968  0.5354643032775702  1.0000
  C   C6        1.0  0.756237818964886  0.888572282297777  0.019059765621241342  1.0000
  C   C7        1.0  0.9459512913873576  0.35364670947135723  0.4452676348715294  1.0000
  C   C8        1.0  0.9105622801402655  0.04638735879227074  0.127846936712809  1.0000
  O   O1        1.0  0.536187516824693  0.3765759489904139  0.6373738199263115  1.0000
  O   O2        1.0  0.6386658092473434  0.04670317576304073  0.06291944900913082  1.0000
  O   O3        1.0  0.9436184431626935  0.4772521289916385  0.503942973261178  1.0000
  O   O4        1.0  0.8205396561391832  0.21750551020386255  0.14323279415674084  1.0000
  O   O5        1.0  0.4353511477760751  0.18226521420468456  0.5945529888156674  1.0000
  O   O6        1.0  0.43425734561452034  0.7605995716569803  0.8310726798613548  1.0000
  O   O7        1.0  0.09603513757280888  0.20577411710906957  0.3416065626381366  1.0000
  O   O8        1.0  0.9998278600782178  0.8620265562316007  0.15548070076449116  1.0000
  O   O9        1.0  0.4809340794447967  0.7565491261497332  0.4114378141986309  1.0000
  O   O10       1.0  0.3711455006061658  0.873517378692721  0.12222005957321637  1.0000
  O   O11       1.0  0.41823242919649906  0.4014571033032279  0.10899909486131722  1.0000
  O   O12       1.0  0.8725600378914729  0.716671491682155  0.9930796912955053  1.0000
data_image128
_chemical_formula_structural       Mg2C8O12
_chemical_formula_sum              "Mg2 C8 O12"
_cell_length_a       7.872530813609877
_cell_length_b       7.872530813609877
_cell_length_c       7.368803275525341
_cell_angle_alpha    62.34925540174321
_cell_angle_beta     62.34925540174321
_cell_angle_gamma    54.72736521231912

_space_group_name_H-M_alt    "P 1"
_space_group_IT_number       1

loop_
  _space_group_symop_operation_xyz
  'x, y, z'

loop_
  _atom_site_type_symbol
  _atom_site_label
  _atom_site_symmetry_multiplicity
  _atom_site_fract_x
  _atom_site_fract_y
  _atom_site_fract_z
  _atom_site_occupancy
  Mg  Mg1       1.0  0.42358263018801234  0.09015984652909492  0.3190278304502661  1.0000
  Mg  Mg2       1.0  0.5251532993736976  0.595961919935202  0.6658758888550993  1.0000
  C   C1        1.0  0.40468758338530025  0.534265721745592  0.33888101277895044  1.0000
  C   C2        1.0  0.44545370277164215  0.5310273167297627  0.11694792887613664  1.0000
  C   C3        1.0  0.37519586408856126  0.7260855990517178  0.327662117097614  1.0000
  C   C4        1.0  0.43288938082870004  0.747408800158275  0.011338653248991616  1.0000
  C   C5        1.0  0.4544822225596804  0.37060133279564733  0.5236483260685802  1.0000
  C   C6        1.0  0.7105764018152387  0.785741257125835  0.06691722659492927  1.0000
  C   C7        1.0  0.020155770278251106  0.338598611892439  0.49101975552103827  1.0000
  C   C8        1.0  0.9254519485850488  0.08121517097232855  0.1872034036773309  1.0000
  O   O1        1.0  0.5352962281002978  0.333637949353257  0.6692278374750574  1.0000
  O   O2        1.0  0.6643864696268482  0.9524401618984722  0.10070252465962237  1.0000
  O   O3        1.0  0.8793994019834742  0.49482511904860105  0.5476276961706492  1.0000
  O   O4        1.0  0.8844427290840494  0.2621723540669121  0.13028575734092862  1.0000
  O   O5        1.0  0.4370283495877002  0.20228459545728822  0.528558469820651  1.0000
  O   O6        1.0  0.48563119404862515  0.8257251662341621  0.8132155292159053  1.0000
  O   O7        1.0  0.13124682955951406  0.2586579624998589  0.3302597292078755  1.0000
  O   O8        1.0  0.9727118749967896  0.9104709604208898  0.18252520443521814  1.0000
  O   O9        1.0  0.36960507737434756  0.7920949962438583  0.4571988949704985  1.0000
  O   O10       1.0  0.3495091575279647  0.8811154978183681  0.12401966964168402  1.0000
  O   O11       1.0  0.4554984073803949  0.3860638403207568  0.09049048405850561  1.0000
  O   O12       1.0  0.8382219395640182  0.6446027737034867  0.9805522019474902  1.0000
data_image129
_chemical_formula_structural       Mg2C8O12
_chemical_formula_sum              "Mg2 C8 O12"
_cell_length_a       7.872530813609877
_cell_length_b       7.872530813609877
_cell_length_c       7.368803275525341
_cell_angle_alpha    62.34925540174321
_cell_angle_beta     62.34925540174321
_cell_angle_gamma    54.72736521231912

_space_group_name_H-M_alt    "P 1"
_space_group_IT_number       1

loop_
  _space_group_symop_operation_xyz
  'x, y, z'

loop_
  _atom_site_type_symbol
  _atom_site_label
  _atom_site_symmetry_multiplicity
  _atom_site_fract_x
  _atom_site_fract_y
  _atom_site_fract_z
  _atom_site_occupancy
  Mg  Mg1       1.0  0.4234150312213523  0.08549444971238374  0.2644675672360183  1.0000
  Mg  Mg2       1.0  0.5082750724099669  0.447187477807791  0.7630607060087684  1.0000
  C   C1        1.0  0.4493873328915531  0.5010913929277558  0.3608166435867453  1.0000
  C   C2        1.0  0.4114931755642268  0.5740634934510258  0.13364310913810773  1.0000
  C   C3        1.0  0.36220289890522367  0.7432220680558166  0.36669243387050804  1.0000
  C   C4        1.0  0.41589822050885755  0.7824247797752513  0.010616260057083075  1.0000
  C   C5        1.0  0.4747757006629404  0.30203639194030996  0.5062800352950568  1.0000
  C   C6        1.0  0.8430094455791848  0.812216323163135  0.9700085376644054  1.0000
  C   C7        1.0  0.0036744011159504097  0.37569597968869467  0.49655072451122084  1.0000
  C   C8        1.0  0.8914283327419614  0.1711644943452395  0.14623520905294596  1.0000
  O   O1        1.0  0.43656955595219826  0.27286913628006165  0.7114984856020986  1.0000
  O   O2        1.0  0.6966742481603323  0.9407600456319978  0.0737568484803075  1.0000
  O   O3        1.0  0.8260965240887403  0.41355710732255957  0.6402110405378105  1.0000
  O   O4        1.0  0.9388715904369797  0.31549957746140955  0.031237990831828988  1.0000
  O   O5        1.0  0.4869639728844847  0.15784307777927373  0.45745530117819905  1.0000
  O   O6        1.0  0.5043064649452492  0.8162782177782016  0.8180105338503244  1.0000
  O   O7        1.0  0.10218859293388002  0.31238945820189473  0.3400177443316743  1.0000
  O   O8        1.0  0.9045646352977429  0.0005571734272087348  0.23522522474829732  1.0000
  O   O9        1.0  0.3543557332252947  0.8174802153396514  0.5034193165695134  1.0000
  O   O10       1.0  0.3736897877327879  0.8822285899648779  0.15202686512454625  1.0000
  O   O11       1.0  0.369717199890042  0.4925672534849116  0.04906558910507555  1.0000
  O   O12       1.0  0.9715874678037555  0.6450828355649028  0.9342209988922685  1.0000
data_image130
_chemical_formula_structural       Mg2C8O12
_chemical_formula_sum              "Mg2 C8 O12"
_cell_length_a       7.872530813609877
_cell_length_b       7.872530813609877
_cell_length_c       7.368803275525341
_cell_angle_alpha    62.34925540174321
_cell_angle_beta     62.34925540174321
_cell_angle_gamma    54.72736521231912

_space_group_name_H-M_alt    "P 1"
_space_group_IT_number       1

loop_
  _space_group_symop_operation_xyz
  'x, y, z'

loop_
  _atom_site_type_symbol
  _atom_site_label
  _atom_site_symmetry_multiplicity
  _atom_site_fract_x
  _atom_site_fract_y
  _atom_site_fract_z
  _atom_site_occupancy
  Mg  Mg1       1.0  0.43653891439992826  0.06286165972462887  0.2897020419342359  1.0000
  Mg  Mg2       1.0  0.45306964836253083  0.4520812422261764  0.7743798329810775  1.0000
  C   C1        1.0  0.36045762038282264  0.6019647609260439  0.31124362788806875  1.0000
  C   C2        1.0  0.31920219846095105  0.6765061917841367  0.10995311475299796  1.0000
  C   C3        1.0  0.43160186340520784  0.7188454310392803  0.32461313003495446  1.0000
  C   C4        1.0  0.5039212391354242  0.7764869968720963  0.9524586100756458  1.0000
  C   C5        1.0  0.43597537471659253  0.35945721360726796  0.4435319701500698  1.0000
  C   C6        1.0  0.8183619842368115  0.8452685185725161  0.9953332339359864  1.0000
  C   C7        1.0  0.9143165601220578  0.2348314668739916  0.5344942183822106  1.0000
  C   C8        1.0  0.9562411459827413  0.14409379032272795  0.18625500977893905  1.0000
  O   O1        1.0  0.5090719006788098  0.29097796676935234  0.5981953629899048  1.0000
  O   O2        1.0  0.7304365106784658  0.9861700323500708  0.08027380165356035  1.0000
  O   O3        1.0  0.7648349626076926  0.3519603253553989  0.6610924090650201  1.0000
  O   O4        1.0  0.9907671467066356  0.24392013866790618  0.006677174772466987  1.0000
  O   O5        1.0  0.4472650947765665  0.18757930569118467  0.42828662434254594  1.0000
  O   O6        1.0  0.47845332969388804  0.9199602085364391  0.8056605419037162  1.0000
  O   O7        1.0  0.0868086598831611  0.1581633155495411  0.4266115903524992  1.0000
  O   O8        1.0  0.906423211937231  0.022879765721683043  0.3614851928404921  1.0000
  O   O9        1.0  0.4367080341739833  0.7296625158135629  0.4999111842547069  1.0000
  O   O10       1.0  0.4274961019848647  0.8866513941088898  0.15421376260588399  1.0000
  O   O11       1.0  0.3528193802592838  0.5420061635601751  0.03875226860737248  1.0000
  O   O12       1.0  0.9838871966663907  0.7012053649198018  0.9282320062384867  1.0000
data_image131
_chemical_formula_structural       Mg2C8O12
_chemical_formula_sum              "Mg2 C8 O12"
_cell_length_a       7.872530813609877
_cell_length_b       7.872530813609877
_cell_length_c       7.368803275525341
_cell_angle_alpha    62.34925540174321
_cell_angle_beta     62.34925540174321
_cell_angle_gamma    54.72736521231912

_space_group_name_H-M_alt    "P 1"
_space_group_IT_number       1

loop_
  _space_group_symop_operation_xyz
  'x, y, z'

loop_
  _atom_site_type_symbol
  _atom_site_label
  _atom_site_symmetry_multiplicity
  _atom_site_fract_x
  _atom_site_fract_y
  _atom_site_fract_z
  _atom_site_occupancy
  Mg  Mg1       1.0  0.39954955125048  0.9999989797151381  0.37903592185613355  1.0000
  Mg  Mg2       1.0  0.3563542465083236  0.5647744086761946  0.7475885327021466  1.0000
  C   C1        1.0  0.46582159288440333  0.516854675943642  0.2694228349213256  1.0000
  C   C2        1.0  0.4673778752200619  0.5720742911978065  0.060450490922559025  1.0000
  C   C3        1.0  0.4683102625888411  0.7018734154399708  0.3007206125156818  1.0000
  C   C4        1.0  0.4601628225177003  0.8058118408186681  0.893753482599772  1.0000
  C   C5        1.0  0.36408999751072557  0.37846673670214326  0.47704203418743935  1.0000
  C   C6        1.0  0.784908873557536  0.8211992779128379  0.053518415891238735  1.0000
  C   C7        1.0  0.9370469397076118  0.2591870884954119  0.5989832040898997  1.0000
  C   C8        1.0  0.03392036822612749  0.10772373604992613  0.055207862088532345  1.0000
  O   O1        1.0  0.3491701171276974  0.42754979105548685  0.619216223875403  1.0000
  O   O2        1.0  0.6646406131823472  0.9715761628498653  0.12116149545123622  1.0000
  O   O3        1.0  0.8369846615065244  0.2956029015386371  0.7603571968324703  1.0000
  O   O4        1.0  0.07372205901197905  0.24716749002626592  0.9963389252244371  1.0000
  O   O5        1.0  0.43285155082700555  0.19806562603217914  0.4494328767594511  1.0000
  O   O6        1.0  0.48936257690642815  0.9539535089858098  0.8145218160761831  1.0000
  O   O7        1.0  0.057029386615629736  0.27464946393471606  0.42388011418159355  1.0000
  O   O8        1.0  0.9709730761071563  0.9725987465262149  0.18153499052729716  1.0000
  O   O9        1.0  0.5143822587291462  0.6830408858672916  0.4641080913417548  1.0000
  O   O10       1.0  0.35760215672424595  0.8843818942753684  0.19165975828220647  1.0000
  O   O11       1.0  0.406767172387513  0.5050376855415518  0.9726170699990909  1.0000
  O   O12       1.0  0.9831802511745265  0.6796181770553074  0.008940927627319448  1.0000
data_image132
_chemical_formula_structural       Mg2C8O12
_chemical_formula_sum              "Mg2 C8 O12"
_cell_length_a       7.872530813609877
_cell_length_b       7.872530813609877
_cell_length_c       7.368803275525341
_cell_angle_alpha    62.34925540174321
_cell_angle_beta     62.34925540174321
_cell_angle_gamma    54.72736521231912

_space_group_name_H-M_alt    "P 1"
_space_group_IT_number       1

loop_
  _space_group_symop_operation_xyz
  'x, y, z'

loop_
  _atom_site_type_symbol
  _atom_site_label
  _atom_site_symmetry_multiplicity
  _atom_site_fract_x
  _atom_site_fract_y
  _atom_site_fract_z
  _atom_site_occupancy
  Mg  Mg1       1.0  0.4029033613102283  0.12261353269524178  0.21294874190165075  1.0000
  Mg  Mg2       1.0  0.2716381429724256  0.4964671938557276  0.8372206777762434  1.0000
  C   C1        1.0  0.43226728248836743  0.533568625547567  0.32924018346689576  1.0000
  C   C2        1.0  0.43639331295498507  0.5720944275428885  0.10217939967776749  1.0000
  C   C3        1.0  0.4138400290282842  0.6878715813904053  0.4072996748719559  1.0000
  C   C4        1.0  0.5549736909613274  0.699187226861066  0.9283668737531087  1.0000
  C   C5        1.0  0.37603586951323376  0.3649682855389405  0.4672739618056562  1.0000
  C   C6        1.0  0.8438617109091522  0.9172191027553025  0.8947495943057941  1.0000
  C   C7        1.0  0.9613981175244807  0.3375171652378619  0.5386168527470512  1.0000
  C   C8        1.0  0.03485860894043697  0.12665974018051784  0.08766127091200326  1.0000
  O   O1        1.0  0.24735541417573648  0.3724486162227588  0.6594926043491101  1.0000
  O   O2        1.0  0.6781974034656137  0.035823561831223705  0.9802102237039965  1.0000
  O   O3        1.0  0.8478763075784176  0.33961957304891244  0.7089165223999288  1.0000
  O   O4        1.0  0.9985147405375341  0.3049063337298714  0.08589485741624037  1.0000
  O   O5        1.0  0.4530527678303659  0.18778062510580107  0.40401846471707337  1.0000
  O   O6        1.0  0.7138649611721533  0.7049658627652559  0.9189265271327164  1.0000
  O   O7        1.0  0.07206866969316594  0.27934065060846575  0.3820053275153279  1.0000
  O   O8        1.0  0.040420270737327214  0.9719515199331079  0.08738748029454868  1.0000
  O   O9        1.0  0.4668650671623902  0.6030047727248495  0.5796532639834078  1.0000
  O   O10       1.0  0.33136417110388494  0.8987073769367023  0.3163214842953957  1.0000
  O   O11       1.0  0.3547578646062741  0.4964264115389524  0.06743072079894645  1.0000
  O   O12       1.0  0.005036313682623028  0.7591980569067662  0.8938319229032032  1.0000
data_image133
_chemical_formula_structural       Mg2C8O12
_chemical_formula_sum              "Mg2 C8 O12"
_cell_length_a       7.872530813609877
_cell_length_b       7.872530813609877
_cell_length_c       7.368803275525341
_cell_angle_alpha    62.34925540174321
_cell_angle_beta     62.34925540174321
_cell_angle_gamma    54.72736521231912

_space_group_name_H-M_alt    "P 1"
_space_group_IT_number       1

loop_
  _space_group_symop_operation_xyz
  'x, y, z'

loop_
  _atom_site_type_symbol
  _atom_site_label
  _atom_site_symmetry_multiplicity
  _atom_site_fract_x
  _atom_site_fract_y
  _atom_site_fract_z
  _atom_site_occupancy
  Mg  Mg1       1.0  0.39878948902365813  0.9971104891258356  0.38063447704976383  1.0000
  Mg  Mg2       1.0  0.21534647455264144  0.5575707642187014  0.8769100762120493  1.0000
  C   C1        1.0  0.46893618919492525  0.46237442282212843  0.35655413004122843  1.0000
  C   C2        1.0  0.4672127571020732  0.495181501035692  0.14233341194086196  1.0000
  C   C3        1.0  0.42928449271565583  0.6757282309064938  0.3642919227769  1.0000
  C   C4        1.0  0.4624831005844129  0.6724081342351467  0.9658012285276394  1.0000
  C   C5        1.0  0.40856504310571296  0.30716329494013245  0.5509880577537036  1.0000
  C   C6        1.0  0.8238765826008387  0.010077457869459794  0.8377070619719931  1.0000
  C   C7        1.0  0.048757207838733274  0.24022367637953584  0.5569649655438729  1.0000
  C   C8        1.0  0.055680286281316285  0.15930680509758388  0.03030410043675147  1.0000
  O   O1        1.0  0.26339028531512265  0.39398901597047714  0.7031599395454078  1.0000
  O   O2        1.0  0.6754418283426511  0.1860021760389028  0.8537082764747854  1.0000
  O   O3        1.0  0.004756048659126932  0.3893982338027216  0.6069736472347311  1.0000
  O   O4        1.0  0.9568479317131763  0.31954905919789245  0.06888141853771534  1.0000
  O   O5        1.0  0.41676303259504754  0.15173102730428972  0.5566275610251439  1.0000
  O   O6        1.0  0.5287178464403838  0.766207293733742  0.7915234917723076  1.0000
  O   O7        1.0  0.056023657494110965  0.21407121846689015  0.3931513111874745  1.0000
  O   O8        1.0  0.10268903508350909  0.02525251579938148  0.9591990567097952  1.0000
  O   O9        1.0  0.36894507356774864  0.7065887062167312  0.5633934240509444  1.0000
  O   O10       1.0  0.5202379451428907  0.7999848449071527  0.21218147895587108  1.0000
  O   O11       1.0  0.35387134145495414  0.410360833818356  0.13384439211766247  1.0000
  O   O12       1.0  0.9694288540877511  0.8492239680095001  0.8899339773065194  1.0000
data_image134
_chemical_formula_structural       Mg2C8O12
_chemical_formula_sum              "Mg2 C8 O12"
_cell_length_a       7.872530813609877
_cell_length_b       7.872530813609877
_cell_length_c       7.368803275525341
_cell_angle_alpha    62.34925540174321
_cell_angle_beta     62.34925540174321
_cell_angle_gamma    54.72736521231912

_space_group_name_H-M_alt    "P 1"
_space_group_IT_number       1

loop_
  _space_group_symop_operation_xyz
  'x, y, z'

loop_
  _atom_site_type_symbol
  _atom_site_label
  _atom_site_symmetry_multiplicity
  _atom_site_fract_x
  _atom_site_fract_y
  _atom_site_fract_z
  _atom_site_occupancy
  Mg  Mg1       1.0  0.4874768600854367  0.9010038064119417  0.5400555550115316  1.0000
  Mg  Mg2       1.0  0.20421809992955497  0.5726828020856137  0.8347296441050985  1.0000
  C   C1        1.0  0.3540912781796748  0.5352718886761396  0.3739931855888942  1.0000
  C   C2        1.0  0.36539974847325435  0.5342238830398395  0.18319072699175648  1.0000
  C   C3        1.0  0.4387543730429351  0.6726003676920358  0.39419210353610556  1.0000
  C   C4        1.0  0.5066266315696063  0.6133308418558736  0.9929306095804676  1.0000
  C   C5        1.0  0.4654917555868242  0.2638358735966729  0.4795782563436046  1.0000
  C   C6        1.0  0.7946511102482434  0.9870912733453281  0.9747404764317096  1.0000
  C   C7        1.0  0.008694440955897997  0.33008078778070143  0.4283138392573387  1.0000
  C   C8        1.0  0.9888717385734662  0.3300353960187363  0.9347020807152636  1.0000
  O   O1        1.0  0.42728569754705426  0.20505722937899307  0.6767114084280973  1.0000
  O   O2        1.0  0.7250924892891502  0.1344050584359211  0.8233516701534385  1.0000
  O   O3        1.0  0.8684639553428646  0.5133867429854754  0.4295300197433012  1.0000
  O   O4        1.0  0.9768969066841102  0.45376936228202314  0.9869614894521327  1.0000
  O   O5        1.0  0.6204206158749934  0.13275260039894088  0.3691282406450062  1.0000
  O   O6        1.0  0.47626516134354685  0.7301973735865338  0.830444543403193  1.0000
  O   O7        1.0  0.10229316647813737  0.12578859820351498  0.507954330039786  1.0000
  O   O8        1.0  0.04361249588279732  0.14927188399535085  0.9230185831376386  1.0000
  O   O9        1.0  0.3862377973517348  0.6724409071988483  0.5771708388573594  1.0000
  O   O10       1.0  0.4547570649127597  0.819562578163556  0.24127018055686902  1.0000
  O   O11       1.0  0.2838522509451694  0.4372491985343639  0.1675385423481321  1.0000
  O   O12       1.0  0.9174770025437748  0.7767605857338091  0.05322134206218501  1.0000
data_image135
_chemical_formula_structural       Mg2C8O12
_chemical_formula_sum              "Mg2 C8 O12"
_cell_length_a       7.872530813609877
_cell_length_b       7.872530813609877
_cell_length_c       7.368803275525341
_cell_angle_alpha    62.34925540174321
_cell_angle_beta     62.34925540174321
_cell_angle_gamma    54.72736521231912

_space_group_name_H-M_alt    "P 1"
_space_group_IT_number       1

loop_
  _space_group_symop_operation_xyz
  'x, y, z'

loop_
  _atom_site_type_symbol
  _atom_site_label
  _atom_site_symmetry_multiplicity
  _atom_site_fract_x
  _atom_site_fract_y
  _atom_site_fract_z
  _atom_site_occupancy
  Mg  Mg1       1.0  0.45277822455407213  0.8684903490727098  0.6120784974107268  1.0000
  Mg  Mg2       1.0  0.19000227306058215  0.5691110733811477  0.8535770579976815  1.0000
  C   C1        1.0  0.46641269221988557  0.4534448807165537  0.3642213916010689  1.0000
  C   C2        1.0  0.41656032297716045  0.5117588649060526  0.13575651167828998  1.0000
  C   C3        1.0  0.3687279253982948  0.6657966789960902  0.38198278444164574  1.0000
  C   C4        1.0  0.4830978813496825  0.6848095320362618  0.057726095456506754  1.0000
  C   C5        1.0  0.43382518146156956  0.2820988870465331  0.502546271267933  1.0000
  C   C6        1.0  0.8463283735754452  0.0026645637998958804  0.8461997992997661  1.0000
  C   C7        1.0  0.9742853659778875  0.3303380235322823  0.46505126154517784  1.0000
  C   C8        1.0  0.058372728219116196  0.22494974944371804  0.015535537145163536  1.0000
  O   O1        1.0  0.4148544877957896  0.2688074732101424  0.6873141333276213  1.0000
  O   O2        1.0  0.6715350384368373  0.131091547796776  0.8296680706637201  1.0000
  O   O3        1.0  0.8026992022480646  0.46839273505731516  0.41175860189387326  1.0000
  O   O4        1.0  0.031304226894026954  0.4049367390260914  0.9133013577883755  1.0000
  O   O5        1.0  0.5149484696767354  0.08986471164181513  0.4715816909386009  1.0000
  O   O6        1.0  0.5285134902573948  0.7590221110229537  0.8630805244903477  1.0000
  O   O7        1.0  0.14197342828924397  0.17889953390102256  0.45582695027933684  1.0000
  O   O8        1.0  0.02320986170897413  0.08504205619567973  0.14345095937508612  1.0000
  O   O9        1.0  0.3663360265333888  0.6904902385730648  0.550095906750952  1.0000
  O   O10       1.0  0.42478191960706435  0.7839986552475191  0.20995333278284134  1.0000
  O   O11       1.0  0.32921786901573025  0.5001678875247318  0.030230064300214382  1.0000
  O   O12       1.0  0.013757844363520899  0.928151364229948  0.8762216604640856  1.0000
data_image136
_chemical_formula_structural       Mg2C8O12
_chemical_formula_sum              "Mg2 C8 O12"
_cell_length_a       7.872530813609877
_cell_length_b       7.872530813609877
_cell_length_c       7.368803275525341
_cell_angle_alpha    62.34925540174321
_cell_angle_beta     62.34925540174321
_cell_angle_gamma    54.72736521231912

_space_group_name_H-M_alt    "P 1"
_space_group_IT_number       1

loop_
  _space_group_symop_operation_xyz
  'x, y, z'

loop_
  _atom_site_type_symbol
  _atom_site_label
  _atom_site_symmetry_multiplicity
  _atom_site_fract_x
  _atom_site_fract_y
  _atom_site_fract_z
  _atom_site_occupancy
  Mg  Mg1       1.0  0.5477436995937228  0.8440173675905305  0.4932428255567596  1.0000
  Mg  Mg2       1.0  0.22227154477646605  0.5122694302007682  0.8575097754684411  1.0000
  C   C1        1.0  0.40923963595631996  0.5080065206668982  0.31857176228491085  1.0000
  C   C2        1.0  0.4190375646411458  0.4784665392893957  0.12608890393960173  1.0000
  C   C3        1.0  0.37190762010533845  0.7138186580393032  0.3000355060565629  1.0000
  C   C4        1.0  0.4246225467424176  0.7004343454899391  0.9884750719991711  1.0000
  C   C5        1.0  0.4536086997481944  0.3057354169915673  0.47292017120684654  1.0000
  C   C6        1.0  0.940723785103412  0.9029423757224608  0.9795553833995496  1.0000
  C   C7        1.0  0.9715822631789833  0.32753161966337085  0.5399915631408918  1.0000
  C   C8        1.0  0.9111327144523172  0.3212436481545242  0.0616016281837668  1.0000
  O   O1        1.0  0.43883861393092827  0.29320455660745887  0.6574676620791928  1.0000
  O   O2        1.0  0.764552901297249  0.03533270814002365  0.032912845262264234  1.0000
  O   O3        1.0  0.7910775664357755  0.48836176211738125  0.5445959596175496  1.0000
  O   O4        1.0  0.9379938603419506  0.46612835812868614  0.8949408516206105  1.0000
  O   O5        1.0  0.5161547041997921  0.13179433800076967  0.4230987445663322  1.0000
  O   O6        1.0  0.4709557148791944  0.7609162886048055  0.7902340038245205  1.0000
  O   O7        1.0  0.15482256298307  0.17404266073163177  0.52068067129397  1.0000
  O   O8        1.0  0.8604615222986366  0.21781473625160475  0.23386446117255955  1.0000
  O   O9        1.0  0.3410538171506121  0.7625031812741313  0.4633169521291318  1.0000
  O   O10       1.0  0.4004437320959646  0.8218652972791867  0.10040032448279586  1.0000
  O   O11       1.0  0.3815016425742822  0.3649030815024712  0.07267324942811715  1.0000
  O   O12       1.0  0.12084954076435439  0.8189869728049394  0.8662514649880099  1.0000
data_image137
_chemical_formula_structural       Mg2C8O12
_chemical_formula_sum              "Mg2 C8 O12"
_cell_length_a       7.872530813609877
_cell_length_b       7.872530813609877
_cell_length_c       7.368803275525341
_cell_angle_alpha    62.34925540174321
_cell_angle_beta     62.34925540174321
_cell_angle_gamma    54.72736521231912

_space_group_name_H-M_alt    "P 1"
_space_group_IT_number       1

loop_
  _space_group_symop_operation_xyz
  'x, y, z'

loop_
  _atom_site_type_symbol
  _atom_site_label
  _atom_site_symmetry_multiplicity
  _atom_site_fract_x
  _atom_site_fract_y
  _atom_site_fract_z
  _atom_site_occupancy
  Mg  Mg1       1.0  0.5584541095416928  0.87275100530002  0.4768339618625596  1.0000
  Mg  Mg2       1.0  0.3161267186937263  0.5545723909820344  0.7663025786707648  1.0000
  C   C1        1.0  0.41661922749672387  0.4803484796589753  0.3189441672820958  1.0000
  C   C2        1.0  0.32558248078324803  0.5265634141476003  0.15754680539874466  1.0000
  C   C3        1.0  0.45103722760505516  0.662109521717149  0.2640859295282865  1.0000
  C   C4        1.0  0.3120996485252491  0.7383418187566596  0.9933840217749829  1.0000
  C   C5        1.0  0.5329194767027736  0.24442429070050173  0.48299035808534396  1.0000
  C   C6        1.0  0.8016333869311658  0.9206078928603177  0.9641120496295739  1.0000
  C   C7        1.0  0.8777148964841118  0.42832128499728267  0.5613752175103264  1.0000
  C   C8        1.0  0.9700218161983495  0.28158767094105563  0.12702648578665854  1.0000
  O   O1        1.0  0.4648266230032989  0.29561809932100314  0.6607194296742308  1.0000
  O   O2        1.0  0.6491866841080849  0.9289244439760929  0.11111666387718466  1.0000
  O   O3        1.0  0.9465712913304033  0.546600686166856  0.4071541421428386  1.0000
  O   O4        1.0  0.029757256018046938  0.3842816598465997  0.9439439254204619  1.0000
  O   O5        1.0  0.6589773444088497  0.058297015646438695  0.4362713989351171  1.0000
  O   O6        1.0  0.42442576188239756  0.7285154609200029  0.7967732467664129  1.0000
  O   O7        1.0  0.8387767277009485  0.2926036970599832  0.6607144291018388  1.0000
  O   O8        1.0  0.938216857309377  0.1880204274200885  0.30570951970835636  1.0000
  O   O9        1.0  0.5081905848300317  0.6900877160286898  0.3850063119319497  1.0000
  O   O10       1.0  0.3736353139807436  0.8324135201549074  0.08738184395971729  1.0000
  O   O11       1.0  0.37908601566832084  0.3824155669974677  0.08302411052786537  1.0000
  O   O12       1.0  0.970194004281453  0.8808137843423106  0.824183558905998  1.0000
data_image138
_chemical_formula_structural       Mg2C8O12
_chemical_formula_sum              "Mg2 C8 O12"
_cell_length_a       7.872530813609877
_cell_length_b       7.872530813609877
_cell_length_c       7.368803275525341
_cell_angle_alpha    62.34925540174321
_cell_angle_beta     62.34925540174321
_cell_angle_gamma    54.72736521231912

_space_group_name_H-M_alt    "P 1"
_space_group_IT_number       1

loop_
  _space_group_symop_operation_xyz
  'x, y, z'

loop_
  _atom_site_type_symbol
  _atom_site_label
  _atom_site_symmetry_multiplicity
  _atom_site_fract_x
  _atom_site_fract_y
  _atom_site_fract_z
  _atom_site_occupancy
  Mg  Mg1       1.0  0.47693017360538886  0.9030577635060781  0.3929432609470754  1.0000
  Mg  Mg2       1.0  0.3445604018385532  0.5263532264720804  0.748538002452331  1.0000
  C   C1        1.0  0.4611608279774146  0.4178399713176504  0.3124279295273837  1.0000
  C   C2        1.0  0.4308295279260155  0.45161026824912404  0.13002772766496873  1.0000
  C   C3        1.0  0.4676410225537967  0.6219955703861503  0.27373716844797286  1.0000
  C   C4        1.0  0.43711410302118237  0.6363952375205006  0.0046671059605136985  1.0000
  C   C5        1.0  0.44139069406186815  0.266062715564112  0.5272073281485965  1.0000
  C   C6        1.0  0.822316716130765  0.8929513205948814  0.9372615145692305  1.0000
  C   C7        1.0  0.848361712452202  0.5441978739516464  0.529162723921971  1.0000
  C   C8        1.0  0.07320740611272789  0.2777888264984123  0.1205817198760184  1.0000
  O   O1        1.0  0.4389770332831816  0.25881864609391614  0.6974060681147691  1.0000
  O   O2        1.0  0.7257838200605562  0.8788323253622331  0.11383386142622154  1.0000
  O   O3        1.0  5.8180026221155146e-06  0.5580330203767113  0.48897589198705416  1.0000
  O   O4        1.0  0.11125814857527398  0.3190713292140359  0.9430829160484506  1.0000
  O   O5        1.0  0.4705019897028683  0.09769776517009938  0.5160481018516342  1.0000
  O   O6        1.0  0.34445057197850854  0.7628830020852232  0.8588238453480306  1.0000
  O   O7        1.0  0.6979758499345838  0.49486442284957455  0.6351752764722047  1.0000
  O   O8        1.0  0.005355502230258661  0.2531875236448946  0.3130668624333752  1.0000
  O   O9        1.0  0.40537027699257977  0.6984644245355617  0.4361180713417158  1.0000
  O   O10       1.0  0.4946045233237814  0.7402220892855005  0.05923786588813358  1.0000
  O   O11       1.0  0.3938547101898573  0.36486705441105954  0.044686194731431636  1.0000
  O   O12       1.0  0.9530510124630804  0.9084375467627401  0.7753549679732453  1.0000
data_image139
_chemical_formula_structural       Mg2C8O12
_chemical_formula_sum              "Mg2 C8 O12"
_cell_length_a       7.872530813609877
_cell_length_b       7.872530813609877
_cell_length_c       7.368803275525341
_cell_angle_alpha    62.34925540174321
_cell_angle_beta     62.34925540174321
_cell_angle_gamma    54.72736521231912

_space_group_name_H-M_alt    "P 1"
_space_group_IT_number       1

loop_
  _space_group_symop_operation_xyz
  'x, y, z'

loop_
  _atom_site_type_symbol
  _atom_site_label
  _atom_site_symmetry_multiplicity
  _atom_site_fract_x
  _atom_site_fract_y
  _atom_site_fract_z
  _atom_site_occupancy
  Mg  Mg1       1.0  0.43567752755175154  0.9929285621863575  0.3026901760668768  1.0000
  Mg  Mg2       1.0  0.5205042678643457  0.47910450349329126  0.6710877226082357  1.0000
  C   C1        1.0  0.4867558258942486  0.398102581570172  0.2953806092909321  1.0000
  C   C2        1.0  0.4610922714139565  0.3951281282601641  0.13492672936196357  1.0000
  C   C3        1.0  0.4853746994742317  0.6003816396581422  0.25387749638092005  1.0000
  C   C4        1.0  0.37493480239345844  0.6250619938339687  0.0012148164345680483  1.0000
  C   C5        1.0  0.4223730273206192  0.2539088541867414  0.5168394821229326  1.0000
  C   C6        1.0  0.7902245231561686  0.9193547796737419  0.9805851768392229  1.0000
  C   C7        1.0  0.9211852405183593  0.5748405795062506  0.4540051261722222  1.0000
  C   C8        1.0  0.02167902124711013  0.279605942678832  0.23010510250454463  1.0000
  O   O1        1.0  0.42141428688292537  0.2577453106150036  0.6956079507085182  1.0000
  O   O2        1.0  0.8046390805060333  0.8257151829770694  0.1672330240640968  1.0000
  O   O3        1.0  0.03643999724746827  0.6108914189269544  0.47539454005257564  1.0000
  O   O4        1.0  0.8895281670295749  0.3916436134118204  0.1378549524272059  1.0000
  O   O5        1.0  0.39379977322440757  0.10538866810285591  0.521312906305501  1.0000
  O   O6        1.0  0.25056874925596145  0.7027599588134562  0.9085266039824642  1.0000
  O   O7        1.0  0.7667689003159776  0.5368054355623293  0.544602844511672  1.0000
  O   O8        1.0  0.11420197664513378  0.196301688480768  0.3706144221177343  1.0000
  O   O9        1.0  0.48388054442369444  0.6648291812208657  0.3888111483500503  1.0000
  O   O10       1.0  0.4164054384467749  0.7500396106610515  0.053791199858309074  1.0000
  O   O11       1.0  0.44326279803358676  0.2792099439736908  0.057204757715397764  1.0000
  O   O12       1.0  0.8289152080006488  0.9965452054667328  0.7912914623742857  1.0000
data_image140
_chemical_formula_structural       Mg2C8O12
_chemical_formula_sum              "Mg2 C8 O12"
_cell_length_a       7.872530813609877
_cell_length_b       7.872530813609877
_cell_length_c       7.368803275525341
_cell_angle_alpha    62.34925540174321
_cell_angle_beta     62.34925540174321
_cell_angle_gamma    54.72736521231912

_space_group_name_H-M_alt    "P 1"
_space_group_IT_number       1

loop_
  _space_group_symop_operation_xyz
  'x, y, z'

loop_
  _atom_site_type_symbol
  _atom_site_label
  _atom_site_symmetry_multiplicity
  _atom_site_fract_x
  _atom_site_fract_y
  _atom_site_fract_z
  _atom_site_occupancy
  Mg  Mg1       1.0  0.4602060029675461  0.9678709363555853  0.31174890341249145  1.0000
  Mg  Mg2       1.0  0.5076715116854158  0.46057623118100444  0.6742680201060006  1.0000
  C   C1        1.0  0.452577988431983  0.4159764885572465  0.3010563663302803  1.0000
  C   C2        1.0  0.42182337076932047  0.4363831109054638  0.10630600158103426  1.0000
  C   C3        1.0  0.37794227564176913  0.6520484205521483  0.2664931040293278  1.0000
  C   C4        1.0  0.36634879543474025  0.6476755217267581  0.9589197153626395  1.0000
  C   C5        1.0  0.4952145972493779  0.2302093481964489  0.47544483087774303  1.0000
  C   C6        1.0  0.8285285912486064  0.016053162136511867  0.9812847970837744  1.0000
  C   C7        1.0  0.8576799864183943  0.5457563564420111  0.6424926963150766  1.0000
  C   C8        1.0  0.06347381175013317  0.22016903906087193  0.19755796997566133  1.0000
  O   O1        1.0  0.45990604963083337  0.24813709624931643  0.6615496633033985  1.0000
  O   O2        1.0  0.7755018507513434  0.8722207473660714  0.12250962879838301  1.0000
  O   O3        1.0  0.022507880115396395  0.5428659829023875  0.5589431839376229  1.0000
  O   O4        1.0  0.9915320917750459  0.3900999169149193  0.07253065482426369  1.0000
  O   O5        1.0  0.5638703642234157  0.042896603186248876  0.46543974401978727  1.0000
  O   O6        1.0  0.2581920889303956  0.7375899259601344  0.8159302339632786  1.0000
  O   O7        1.0  0.6981034221286553  0.538519611626139  0.6803685826253065  1.0000
  O   O8        1.0  0.14170540027761222  0.04121077500852888  0.3037124912510527  1.0000
  O   O9        1.0  0.42289423609348464  0.6781077431822173  0.41401983855758756  1.0000
  O   O10       1.0  0.28273331033550214  0.8006951165200913  0.092808726924666  1.0000
  O   O11       1.0  0.41706549990078  0.28621836211870816  0.07304598178784197  1.0000
  O   O12       1.0  0.8732223232246668  0.1178793316074509  0.7853687819653146  1.0000
data_image141
_chemical_formula_structural       Mg2C8O12
_chemical_formula_sum              "Mg2 C8 O12"
_cell_length_a       7.872530813609877
_cell_length_b       7.872530813609877
_cell_length_c       7.368803275525341
_cell_angle_alpha    62.34925540174321
_cell_angle_beta     62.34925540174321
_cell_angle_gamma    54.72736521231912

_space_group_name_H-M_alt    "P 1"
_space_group_IT_number       1

loop_
  _space_group_symop_operation_xyz
  'x, y, z'

loop_
  _atom_site_type_symbol
  _atom_site_label
  _atom_site_symmetry_multiplicity
  _atom_site_fract_x
  _atom_site_fract_y
  _atom_site_fract_z
  _atom_site_occupancy
  Mg  Mg1       1.0  0.4961651998701333  0.9677689980908357  0.23594936006931513  1.0000
  Mg  Mg2       1.0  0.4557656038333143  0.41083072228947615  0.7381316233822798  1.0000
  C   C1        1.0  0.37975589435179263  0.43075493552689526  0.3280998183021919  1.0000
  C   C2        1.0  0.3571055045988198  0.43696565357368206  0.14997572843944182  1.0000
  C   C3        1.0  0.38015596029096077  0.6150002370068056  0.2856593263867613  1.0000
  C   C4        1.0  0.24228069801232013  0.6541385657919943  0.019704828081775563  1.0000
  C   C5        1.0  0.4425682968758009  0.26182952734588777  0.4941889768174243  1.0000
  C   C6        1.0  0.8754307483654238  0.9977612003939822  0.006519461897890655  1.0000
  C   C7        1.0  0.8712426291555055  0.5214111224697525  0.6529544232605455  1.0000
  C   C8        1.0  0.04228456915713523  0.3022672448339452  0.10244930325355073  1.0000
  O   O1        1.0  0.6037689877073706  0.23582210120750868  0.5455053795881278  1.0000
  O   O2        1.0  0.8130619260047647  0.8745898765149015  0.02325153298345839  1.0000
  O   O3        1.0  0.04564467368249536  0.4685482761121632  0.6338036750515399  1.0000
  O   O4        1.0  0.8821892616839564  0.45428323000296733  0.08712660163434238  1.0000
  O   O5        1.0  0.43332604134141245  0.09310664562999112  0.5392613684907916  1.0000
  O   O6        1.0  0.3043786348753323  0.6800460429098205  0.8199856886058183  1.0000
  O   O7        1.0  0.6817315688845451  0.589058885204057  0.6876156527822319  1.0000
  O   O8        1.0  0.15986223051795992  0.160796071317991  0.22119191300231988  1.0000
  O   O9        1.0  0.4697845314715201  0.6622712631701462  0.3478412803029471  1.0000
  O   O10       1.0  0.3072695848691606  0.7476347428229047  0.10996722024485665  1.0000
  O   O11       1.0  0.4395391593057626  0.27895109212982827  0.06831619479158507  1.0000
  O   O12       1.0  0.9958925124485047  0.0875755409104341  0.8968706172675823  1.0000
data_image142
_chemical_formula_structural       Mg2C8O12
_chemical_formula_sum              "Mg2 C8 O12"
_cell_length_a       7.872530813609877
_cell_length_b       7.872530813609877
_cell_length_c       7.368803275525341
_cell_angle_alpha    62.34925540174321
_cell_angle_beta     62.34925540174321
_cell_angle_gamma    54.72736521231912

_space_group_name_H-M_alt    "P 1"
_space_group_IT_number       1

loop_
  _space_group_symop_operation_xyz
  'x, y, z'

loop_
  _atom_site_type_symbol
  _atom_site_label
  _atom_site_symmetry_multiplicity
  _atom_site_fract_x
  _atom_site_fract_y
  _atom_site_fract_z
  _atom_site_occupancy
  Mg  Mg1       1.0  0.42137760522580897  0.9977157221627999  0.21934236325624465  1.0000
  Mg  Mg2       1.0  0.37083682109499483  0.5238397274785058  0.6499801479639334  1.0000
  C   C1        1.0  0.4363682347947203  0.4074577972320378  0.27857510916050565  1.0000
  C   C2        1.0  0.36481267847455406  0.4493246383529516  0.12335510866846881  1.0000
  C   C3        1.0  0.46787221141788315  0.5728917079105212  0.24124695626946863  1.0000
  C   C4        1.0  0.3380644170752671  0.6450553391651672  0.9657686180724522  1.0000
  C   C5        1.0  0.45239866330537526  0.21754115588738465  0.45787714507403643  1.0000
  C   C6        1.0  0.9131785253748437  0.989982608539009  0.028891031090630404  1.0000
  C   C7        1.0  0.8677005705170645  0.5115292289089908  0.6899769450045414  1.0000
  C   C8        1.0  0.009686448975114354  0.287664790067957  0.21233056843444875  1.0000
  O   O1        1.0  0.4217033936702188  0.2540317002664588  0.6333987113607707  1.0000
  O   O2        1.0  0.81158392310638  0.8906490986101261  0.12531503607370864  1.0000
  O   O3        1.0  0.979184323219892  0.5921319543287357  0.651913523734768  1.0000
  O   O4        1.0  0.9424665878490761  0.4339983564568517  0.06040325654376577  1.0000
  O   O5        1.0  0.49133793755247795  0.030078494299774335  0.4886873334625072  1.0000
  O   O6        1.0  0.3410750277086488  0.7306002169337873  0.7678178020272654  1.0000
  O   O7        1.0  0.7959200412749579  0.43408850295763185  0.6640339677342177  1.0000
  O   O8        1.0  0.06902603864107348  0.09694781377154227  0.3446691333861429  1.0000
  O   O9        1.0  0.47859428938028725  0.6568278697542642  0.3516318269329765  1.0000
  O   O10       1.0  0.39160155554518233  0.735194577044218  0.06881878359254107  1.0000
  O   O11       1.0  0.4368719945734319  0.2912802929317309  0.029613040848632036  1.0000
  O   O12       1.0  0.025015599569869984  0.07337652479977971  0.9848399812268838  1.0000
data_image143
_chemical_formula_structural       Mg2C8O12
_chemical_formula_sum              "Mg2 C8 O12"
_cell_length_a       7.872530813609877
_cell_length_b       7.872530813609877
_cell_length_c       7.368803275525341
_cell_angle_alpha    62.34925540174321
_cell_angle_beta     62.34925540174321
_cell_angle_gamma    54.72736521231912

_space_group_name_H-M_alt    "P 1"
_space_group_IT_number       1

loop_
  _space_group_symop_operation_xyz
  'x, y, z'

loop_
  _atom_site_type_symbol
  _atom_site_label
  _atom_site_symmetry_multiplicity
  _atom_site_fract_x
  _atom_site_fract_y
  _atom_site_fract_z
  _atom_site_occupancy
  Mg  Mg1       1.0  0.49156295375753933  0.8991469094598061  0.28205776096769103  1.0000
  Mg  Mg2       1.0  0.20795733454992538  0.5082797500653675  0.7458364807818815  1.0000
  C   C1        1.0  0.5132932322165679  0.40015178391419814  0.16878526002082553  1.0000
  C   C2        1.0  0.4092389284538726  0.4233871646994335  0.046756416873451626  1.0000
  C   C3        1.0  0.4387339862809765  0.6275119384613168  0.16091142626923036  1.0000
  C   C4        1.0  0.3529766285630971  0.6520963619538319  0.9317014967220303  1.0000
  C   C5        1.0  0.447458060593924  0.2142085281570155  0.42394814126402897  1.0000
  C   C6        1.0  0.9489049459809413  0.9200902537058657  0.12505055332120252  1.0000
  C   C7        1.0  0.8898174544277786  0.6032946155381702  0.7054098542325964  1.0000
  C   C8        1.0  0.03550444286392785  0.2910973499474463  0.2551232461802071  1.0000
  O   O1        1.0  0.34310141701078034  0.2847313463329943  0.5916213587324802  1.0000
  O   O2        1.0  0.9012252612497855  0.8163415918852581  0.09818304978104608  1.0000
  O   O3        1.0  0.9116851090302313  0.7564739454532612  0.6739069161111191  1.0000
  O   O4        1.0  0.9581954458867086  0.42033360161984024  0.11399487575787748  1.0000
  O   O5        1.0  0.4898744372381088  0.045305530892798124  0.42757160697816127  1.0000
  O   O6        1.0  0.27577421474421054  0.7372166241983463  0.7698252715401894  1.0000
  O   O7        1.0  0.8833161822764571  0.43015363081954194  0.7882580397241941  1.0000
  O   O8        1.0  0.15133366723814404  0.09247098901792361  0.2999332942601962  1.0000
  O   O9        1.0  0.4010407294745941  0.7049177598731076  0.2974041476307041  1.0000
  O   O10       1.0  0.42806489716167506  0.7496131718910414  0.9555265681310914  1.0000
  O   O11       1.0  0.45107754357187646  0.2617700118922791  0.978051513500876  1.0000
  O   O12       1.0  0.9873750751646737  0.057372489881920785  0.07177761872427485  1.0000
data_image144
_chemical_formula_structural       Mg2C8O12
_chemical_formula_sum              "Mg2 C8 O12"
_cell_length_a       7.872530813609877
_cell_length_b       7.872530813609877
_cell_length_c       7.368803275525341
_cell_angle_alpha    62.34925540174321
_cell_angle_beta     62.34925540174321
_cell_angle_gamma    54.72736521231912

_space_group_name_H-M_alt    "P 1"
_space_group_IT_number       1

loop_
  _space_group_symop_operation_xyz
  'x, y, z'

loop_
  _atom_site_type_symbol
  _atom_site_label
  _atom_site_symmetry_multiplicity
  _atom_site_fract_x
  _atom_site_fract_y
  _atom_site_fract_z
  _atom_site_occupancy
  Mg  Mg1       1.0  0.5426047632659219  0.9666684849303642  0.15106607162217525  1.0000
  Mg  Mg2       1.0  0.28000498272630037  0.4150107443617701  0.7674295989692781  1.0000
  C   C1        1.0  0.4280425830701722  0.3932443481890065  0.23132668090074998  1.0000
  C   C2        1.0  0.3733920337072127  0.42634921488488603  0.03112509854748284  1.0000
  C   C3        1.0  0.41764670421074523  0.6058871876503465  0.18848714928525429  1.0000
  C   C4        1.0  0.28000562029271553  0.6654542177585506  0.9079037452831316  1.0000
  C   C5        1.0  0.4745296493271456  0.1879467693487761  0.4264734824283007  1.0000
  C   C6        1.0  0.8683977653821509  0.055771318830190486  0.07865031644059117  1.0000
  C   C7        1.0  0.7881993718758136  0.6646016559671771  0.7829184205316977  1.0000
  C   C8        1.0  0.0898456599150725  0.20532087209319205  0.24686300993578314  1.0000
  O   O1        1.0  0.523764581027507  0.18896326985766024  0.5861760711779784  1.0000
  O   O2        1.0  0.9069714103388988  0.8729403502657974  0.08878752353412345  1.0000
  O   O3        1.0  0.6979779252606527  0.8360715913782665  0.7951900496946647  1.0000
  O   O4        1.0  0.03385984379879543  0.3934558471123386  0.1513503539983836  1.0000
  O   O5        1.0  0.5447698075291546  0.004129152805644013  0.3865804281644196  1.0000
  O   O6        1.0  0.2685483361660071  0.6941262770848876  0.7376388830293361  1.0000
  O   O7        1.0  0.9267989617111118  0.477447499107212  0.7856569656438501  1.0000
  O   O8        1.0  0.16748720324719707  0.015917629082950135  0.341581472480337  1.0000
  O   O9        1.0  0.49812798388378154  0.675749922885842  0.2308546181408779  1.0000
  O   O10       1.0  0.3489757203918913  0.7429490833851286  0.9706895035498186  1.0000
  O   O11       1.0  0.4795513768063939  0.2616521647375888  0.9484536270826068  1.0000
  O   O12       1.0  0.8341548723968331  0.17861548932791013  0.15373634068425698  1.0000
data_image145
_chemical_formula_structural       Mg2C8O12
_chemical_formula_sum              "Mg2 C8 O12"
_cell_length_a       7.872530813609877
_cell_length_b       7.872530813609877
_cell_length_c       7.368803275525341
_cell_angle_alpha    62.34925540174321
_cell_angle_beta     62.34925540174321
_cell_angle_gamma    54.72736521231912

_space_group_name_H-M_alt    "P 1"
_space_group_IT_number       1

loop_
  _space_group_symop_operation_xyz
  'x, y, z'

loop_
  _atom_site_type_symbol
  _atom_site_label
  _atom_site_symmetry_multiplicity
  _atom_site_fract_x
  _atom_site_fract_y
  _atom_site_fract_z
  _atom_site_occupancy
  Mg  Mg1       1.0  0.5493742402746645  0.9333141019688154  0.16149340067781362  1.0000
  Mg  Mg2       1.0  0.3046882258956025  0.33490770675848724  0.8193579234156723  1.0000
  C   C1        1.0  0.4823315000357691  0.3910897318145899  0.20955571040306684  1.0000
  C   C2        1.0  0.4166986363786211  0.4134065116717745  0.04593687763941185  1.0000
  C   C3        1.0  0.47986461223386545  0.6107549229792509  0.15782435775982814  1.0000
  C   C4        1.0  0.3479798380200625  0.6386809126246843  0.9085922236251888  1.0000
  C   C5        1.0  0.5215397622018727  0.19653083610049885  0.3847069146771798  1.0000
  C   C6        1.0  0.850774744673104  0.0003937032322345324  0.06544523600379126  1.0000
  C   C7        1.0  0.8739120484068509  0.6934127277100172  0.7543175429691262  1.0000
  C   C8        1.0  0.961529445499621  0.2549427205382415  0.33168897627435157  1.0000
  O   O1        1.0  0.5322963992908523  0.21287772937581179  0.5384738209814575  1.0000
  O   O2        1.0  0.8992956209626779  0.8041187732482442  0.1169527278081518  1.0000
  O   O3        1.0  0.7243584307230475  0.7897535873969944  0.8745323785343482  1.0000
  O   O4        1.0  0.04258135978776176  0.28561923040108916  0.142681927564708  1.0000
  O   O5        1.0  0.49846461571211864  0.05337338630858593  0.3746331755836569  1.0000
  O   O6        1.0  0.2805446590971023  0.665136738214558  0.7422698236083225  1.0000
  O   O7        1.0  0.0528376565261428  0.588828669173953  0.637877235184555  1.0000
  O   O8        1.0  0.8820122165658022  0.2138395812558862  0.5192776620800954  1.0000
  O   O9        1.0  0.39104555307352995  0.7536734279346745  0.2530534765311119  1.0000
  O   O10       1.0  0.3623325816950614  0.7661763561612169  0.9533885080674656  1.0000
  O   O11       1.0  0.495939672627764  0.2236503676706831  0.9830408181968682  1.0000
  O   O12       1.0  0.8594731968949696  0.16362828576576496  0.9730916813248229  1.0000
data_image146
_chemical_formula_structural       Mg2C8O12
_chemical_formula_sum              "Mg2 C8 O12"
_cell_length_a       7.872530813609877
_cell_length_b       7.872530813609877
_cell_length_c       7.368803275525341
_cell_angle_alpha    62.34925540174321
_cell_angle_beta     62.34925540174321
_cell_angle_gamma    54.72736521231912

_space_group_name_H-M_alt    "P 1"
_space_group_IT_number       1

loop_
  _space_group_symop_operation_xyz
  'x, y, z'

loop_
  _atom_site_type_symbol
  _atom_site_label
  _atom_site_symmetry_multiplicity
  _atom_site_fract_x
  _atom_site_fract_y
  _atom_site_fract_z
  _atom_site_occupancy
  Mg  Mg1       1.0  0.5351252522085261  0.9065355021625829  0.21999191110441113  1.0000
  Mg  Mg2       1.0  0.32585890420679775  0.38475287201308317  0.7343982434410322  1.0000
  C   C1        1.0  0.42939102385909456  0.3863956134285389  0.21868193897230256  1.0000
  C   C2        1.0  0.40368778249235776  0.3937487285126567  0.04984080356568715  1.0000
  C   C3        1.0  0.46140186758445645  0.5817073081097752  0.17087487135267018  1.0000
  C   C4        1.0  0.4065639642918211  0.573086675327848  0.9019385258948434  1.0000
  C   C5        1.0  0.44388307437295116  0.19988379031057418  0.4127043943369555  1.0000
  C   C6        1.0  0.9121246773692213  0.9684771642575909  0.03664874857244438  1.0000
  C   C7        1.0  0.8401272874812427  0.6944477895255247  0.7393820644991433  1.0000
  C   C8        1.0  0.9056585865114801  0.3915056289041883  0.3452067533533285  1.0000
  O   O1        1.0  0.4848058997941783  0.2214279594336627  0.5428605043122989  1.0000
  O   O2        1.0  0.8449160711994983  0.8342119508379281  0.11510704578258779  1.0000
  O   O3        1.0  0.7546632236799354  0.8315543775468017  0.8209971221463466  1.0000
  O   O4        1.0  0.003600823292416778  0.34121480696308826  0.1896488573885109  1.0000
  O   O5        1.0  0.3639491448787629  0.08561500563348162  0.4576226459809859  1.0000
  O   O6        1.0  0.41519693700600047  0.62135906803333  0.7066712131981807  1.0000
  O   O7        1.0  0.018525595705536517  0.5815738722435103  0.6513675099376233  1.0000
  O   O8        1.0  0.7791662091199799  0.4301921356049596  0.5106577192993464  1.0000
  O   O9        1.0  0.5012559146901654  0.6660066509674877  0.2191747398923498  1.0000
  O   O10       1.0  0.4741111567279065  0.6658548764673792  0.9435259108447632  1.0000
  O   O11       1.0  0.3876963751739966  0.230696790396558  0.017646359244033034  1.0000
  O   O12       1.0  0.08414035371804784  0.9812866993300102  0.9605383801515043  1.0000
data_image147
_chemical_formula_structural       Mg2C8O12
_chemical_formula_sum              "Mg2 C8 O12"
_cell_length_a       7.872530813609877
_cell_length_b       7.872530813609877
_cell_length_c       7.368803275525341
_cell_angle_alpha    62.34925540174321
_cell_angle_beta     62.34925540174321
_cell_angle_gamma    54.72736521231912

_space_group_name_H-M_alt    "P 1"
_space_group_IT_number       1

loop_
  _space_group_symop_operation_xyz
  'x, y, z'

loop_
  _atom_site_type_symbol
  _atom_site_label
  _atom_site_symmetry_multiplicity
  _atom_site_fract_x
  _atom_site_fract_y
  _atom_site_fract_z
  _atom_site_occupancy
  Mg  Mg1       1.0  0.5122577910493858  0.9327972166869944  0.19435520699554384  1.0000
  Mg  Mg2       1.0  0.38071438328327123  0.3776199846891952  0.7243915482295564  1.0000
  C   C1        1.0  0.39348543515790874  0.4123132895242981  0.20142835632687855  1.0000
  C   C2        1.0  0.4254633998477839  0.35290920121092306  0.032753445509472394  1.0000
  C   C3        1.0  0.45446196076408923  0.5826300171919623  0.13239793035821526  1.0000
  C   C4        1.0  0.37882672027322445  0.5718716666268554  0.8622407229518401  1.0000
  C   C5        1.0  0.3954738216119441  0.22330446407940843  0.4085262088219134  1.0000
  C   C6        1.0  0.9617501120830192  0.882324468485551  0.14640213021835158  1.0000
  C   C7        1.0  0.8587167596110896  0.7592674047636216  0.7147290661940169  1.0000
  C   C8        1.0  0.9113906058675868  0.3698342687580214  0.33321496609375645  1.0000
  O   O1        1.0  0.42801478908646073  0.2468373863014049  0.5456974471587175  1.0000
  O   O2        1.0  0.840882919452181  0.8209891470354377  0.1576423491317399  1.0000
  O   O3        1.0  0.8293839959666686  0.9294883976954836  0.692523638667701  1.0000
  O   O4        1.0  0.9453624267620395  0.25761354510084544  0.24890266915522252  1.0000
  O   O5        1.0  0.4019103347476682  0.04993885569894042  0.42517878315949026  1.0000
  O   O6        1.0  0.3059256741803021  0.6873449550424667  0.6883748065738692  1.0000
  O   O7        1.0  0.9743795590280736  0.5480225907158877  0.7997047793388381  1.0000
  O   O8        1.0  0.8909033295713013  0.4457456828232855  0.4657426770591653  1.0000
  O   O9        1.0  0.4987308977434819  0.6918148575715198  0.17755857414787243  1.0000
  O   O10       1.0  0.4327360563371878  0.687764439130103  0.9115459390586044  1.0000
  O   O11       1.0  0.45565898830168833  0.19681746694366326  0.9732885751600884  1.0000
  O   O12       1.0  0.07568691653197801  0.92478809863834  0.13832407358488957  1.0000
data_image148
_chemical_formula_structural       Mg2C8O12
_chemical_formula_sum              "Mg2 C8 O12"
_cell_length_a       7.872530813609877
_cell_length_b       7.872530813609877
_cell_length_c       7.368803275525341
_cell_angle_alpha    62.34925540174321
_cell_angle_beta     62.34925540174321
_cell_angle_gamma    54.72736521231912

_space_group_name_H-M_alt    "P 1"
_space_group_IT_number       1

loop_
  _space_group_symop_operation_xyz
  'x, y, z'

loop_
  _atom_site_type_symbol
  _atom_site_label
  _atom_site_symmetry_multiplicity
  _atom_site_fract_x
  _atom_site_fract_y
  _atom_site_fract_z
  _atom_site_occupancy
  Mg  Mg1       1.0  0.4512585927445559  0.9562218683509556  0.2534421196505743  1.0000
  Mg  Mg2       1.0  0.2042240109630007  0.46934499176724365  0.8079459295084995  1.0000
  C   C1        1.0  0.5160316683018775  0.35151057663845864  0.20470924463044618  1.0000
  C   C2        1.0  0.45471970697753883  0.36676038085090157  0.033225146995369284  1.0000
  C   C3        1.0  0.537717853781461  0.5702659601497135  0.1490555896227958  1.0000
  C   C4        1.0  0.47464217554536847  0.5592513799961552  0.8602443721136559  1.0000
  C   C5        1.0  0.39007263719977303  0.23888895522149467  0.42585839826784144  1.0000
  C   C6        1.0  0.8892785986660594  0.8647113015628083  0.12544443060448385  1.0000
  C   C7        1.0  0.9006561934785108  0.8257271713490234  0.6694974228024497  1.0000
  C   C8        1.0  0.9857558445983686  0.21820756109630302  0.30573313850903294  1.0000
  O   O1        1.0  0.372488546863894  0.306404614816111  0.5648363731716429  1.0000
  O   O2        1.0  0.8391981952752465  0.7104083740965037  0.18595271821821646  1.0000
  O   O3        1.0  0.8486126289686386  0.008299940062362898  0.5789979089130883  1.0000
  O   O4        1.0  0.15023347842524443  0.15996411440781566  0.14330069013578584  1.0000
  O   O5        1.0  0.29507911737020703  0.13506366680846665  0.47736508812728845  1.0000
  O   O6        1.0  0.5173479063978434  0.5616066601972161  0.6819752531606578  1.0000
  O   O7        1.0  0.9208071508035717  0.647728315979553  0.7418695889641673  1.0000
  O   O8        1.0  0.8792657519632536  0.3455769838277374  0.4049087958526656  1.0000
  O   O9        1.0  0.48113012016098766  0.6497271358104622  0.27977158225602755  1.0000
  O   O10       1.0  0.4884745689711015  0.6821552842864692  0.9274820213103694  1.0000
  O   O11       1.0  0.4494732874367298  0.21250026978113734  0.004509181688989132  1.0000
  O   O12       1.0  0.9249506931973521  0.011313349924082597  0.059575423858050695  1.0000
data_image149
_chemical_formula_structural       Mg2C8O12
_chemical_formula_sum              "Mg2 C8 O12"
_cell_length_a       7.872530813609877
_cell_length_b       7.872530813609877
_cell_length_c       7.368803275525341
_cell_angle_alpha    62.34925540174321
_cell_angle_beta     62.34925540174321
_cell_angle_gamma    54.72736521231912

_space_group_name_H-M_alt    "P 1"
_space_group_IT_number       1

loop_
  _space_group_symop_operation_xyz
  'x, y, z'

loop_
  _atom_site_type_symbol
  _atom_site_label
  _atom_site_symmetry_multiplicity
  _atom_site_fract_x
  _atom_site_fract_y
  _atom_site_fract_z
  _atom_site_occupancy
  Mg  Mg1       1.0  0.42041540048924414  0.9331149063264459  0.3426925553629307  1.0000
  Mg  Mg2       1.0  0.32855631516156436  0.36544259229311327  0.8227590020901615  1.0000
  C   C1        1.0  0.4171574745414284  0.45100552100493124  0.22299986931866483  1.0000
  C   C2        1.0  0.42625902647821345  0.4071986751407963  0.05341963940334167  1.0000
  C   C3        1.0  0.47668460763377696  0.6067420004665162  0.1419173304114893  1.0000
  C   C4        1.0  0.46452405125182655  0.5659379300862574  0.8501835034269308  1.0000
  C   C5        1.0  0.4041187287957325  0.28712998680924223  0.4401378032973312  1.0000
  C   C6        1.0  0.9758367803296126  0.797891163040501  0.1262432801247937  1.0000
  C   C7        1.0  0.9413257114321131  0.8131199303443304  0.6648295692264821  1.0000
  C   C8        1.0  0.9524234658578915  0.2592101676494989  0.18604823901525003  1.0000
  O   O1        1.0  0.2766477736921592  0.36850696934234367  0.5973708473488125  1.0000
  O   O2        1.0  0.9926011973676794  0.6274803553550304  0.24006917694040641  1.0000
  O   O3        1.0  0.8168183082199518  0.8940902820189944  0.5533088056018398  1.0000
  O   O4        1.0  0.051955818733450385  0.252025795666029  0.001983229439555201  1.0000
  O   O5        1.0  0.4566976724933077  0.10378717652413526  0.42716459813368773  1.0000
  O   O6        1.0  0.4055505430376223  0.6500151145059674  0.670808238118157  1.0000
  O   O7        1.0  0.9331752791212904  0.687669267549145  0.8463767996948954  1.0000
  O   O8        1.0  0.810283312374016  0.3004572253334117  0.3438122937205701  1.0000
  O   O9        1.0  0.44806377804318864  0.7283304645601716  0.23917950086364081  1.0000
  O   O10       1.0  0.5303828163024945  0.6629584067982619  0.9128779445764903  1.0000
  O   O11       1.0  0.46867854532108405  0.21228860020157622  0.06251363755549176  1.0000
  O   O12       1.0  0.9013613449344522  0.9914724479821259  0.06325762957255207  1.0000
data_image150
_chemical_formula_structural       Mg2C8O12
_chemical_formula_sum              "Mg2 C8 O12"
_cell_length_a       7.872530813609877
_cell_length_b       7.872530813609877
_cell_length_c       7.368803275525341
_cell_angle_alpha    62.34925540174321
_cell_angle_beta     62.34925540174321
_cell_angle_gamma    54.72736521231912

_space_group_name_H-M_alt    "P 1"
_space_group_IT_number       1

loop_
  _space_group_symop_operation_xyz
  'x, y, z'

loop_
  _atom_site_type_symbol
  _atom_site_label
  _atom_site_symmetry_multiplicity
  _atom_site_fract_x
  _atom_site_fract_y
  _atom_site_fract_z
  _atom_site_occupancy
  Mg  Mg1       1.0  0.45380364053656674  0.8389679409982986  0.43117393608192217  1.0000
  Mg  Mg2       1.0  0.24750236910428647  0.4461889623182288  0.762677268277928  1.0000
  C   C1        1.0  0.49438202570804435  0.3731750655223201  0.20982550276737347  1.0000
  C   C2        1.0  0.4486235090929029  0.41602996633445793  0.03470523982159812  1.0000
  C   C3        1.0  0.5113515739016348  0.5688023242144348  0.16018619318662564  1.0000
  C   C4        1.0  0.5367181964507244  0.547524057195332  0.8528058125027459  1.0000
  C   C5        1.0  0.39357682222171453  0.27887826331115856  0.3851655172171763  1.0000
  C   C6        1.0  0.9359036007000066  0.8161946857939152  0.219865944494686  1.0000
  C   C7        1.0  0.8425553459930719  0.8617023457318864  0.6781917542816205  1.0000
  C   C8        1.0  0.9489225916123569  0.2793198686079923  0.15165361507100883  1.0000
  O   O1        1.0  0.264689550032272  0.36908253475264974  0.5323529694461769  1.0000
  O   O2        1.0  0.882964521439449  0.6698373561060335  0.31109629573694497  1.0000
  O   O3        1.0  0.7529065441462901  0.9015435240043526  0.5651011416812506  1.0000
  O   O4        1.0  0.0672638669107974  0.2581945599649631  0.9853510287126116  1.0000
  O   O5        1.0  0.3849269336550728  0.1095445974806666  0.41413263624879826  1.0000
  O   O6        1.0  0.49327796247618055  0.6154598499615964  0.6835575313908806  1.0000
  O   O7        1.0  0.0124235974091069  0.7591222534204304  0.7279424041066243  1.0000
  O   O8        1.0  0.8919563569004523  0.2854860225924898  0.33275016713006966  1.0000
  O   O9        1.0  0.4640192371513445  0.6513097129430276  0.29570281142319804  1.0000
  O   O10       1.0  0.5231288145152682  0.6768060015620464  0.95053397374136  1.0000
  O   O11       1.0  0.3948469116800815  0.29892265261515777  0.011083579194903296  1.0000
  O   O12       1.0  0.9916417481849715  0.9399828551305524  0.09969992109086456  1.0000
data_image151
_chemical_formula_structural       Mg2C8O12
_chemical_formula_sum              "Mg2 C8 O12"
_cell_length_a       7.872530813609877
_cell_length_b       7.872530813609877
_cell_length_c       7.368803275525341
_cell_angle_alpha    62.34925540174321
_cell_angle_beta     62.34925540174321
_cell_angle_gamma    54.72736521231912

_space_group_name_H-M_alt    "P 1"
_space_group_IT_number       1

loop_
  _space_group_symop_operation_xyz
  'x, y, z'

loop_
  _atom_site_type_symbol
  _atom_site_label
  _atom_site_symmetry_multiplicity
  _atom_site_fract_x
  _atom_site_fract_y
  _atom_site_fract_z
  _atom_site_occupancy
  Mg  Mg1       1.0  0.49237230493598827  0.8249854822269791  0.39308077302638866  1.0000
  Mg  Mg2       1.0  0.23320006622153666  0.44067701677490334  0.7488368367506912  1.0000
  C   C1        1.0  0.46439242648062384  0.361137932453297  0.1933683338737943  1.0000
  C   C2        1.0  0.45758959832012347  0.37397016138403066  0.012523266128285285  1.0000
  C   C3        1.0  0.49528568471884493  0.539323739530453  0.16743456152493552  1.0000
  C   C4        1.0  0.5445983137411129  0.5318018407488475  0.8463605027399678  1.0000
  C   C5        1.0  0.34617814326730634  0.25080020909335954  0.3932416006378786  1.0000
  C   C6        1.0  0.9657656215561559  0.7650455009721319  0.2729784494012928  1.0000
  C   C7        1.0  0.8370279777225363  0.9287493827220156  0.6808823568297169  1.0000
  C   C8        1.0  0.011673090559569504  0.2995979331990992  0.17364613466814838  1.0000
  O   O1        1.0  0.2335831910028645  0.35394272530390564  0.529242924964402  1.0000
  O   O2        1.0  0.7785800048178806  0.7800247479797274  0.32592713730776446  1.0000
  O   O3        1.0  0.7468750364722803  0.09757760071655164  0.5640245480340131  1.0000
  O   O4        1.0  0.06653048199531574  0.26872980201280794  0.007494964231972379  1.0000
  O   O5        1.0  0.30426836548671665  0.1010677425846054  0.4149578078505201  1.0000
  O   O6        1.0  0.5375115611759343  0.5909087849949365  0.6395878296812811  1.0000
  O   O7        1.0  0.9403447194254657  0.724938415336159  0.7626162484097019  1.0000
  O   O8        1.0  0.9681409694837295  0.3655526650424643  0.3087250038140579  1.0000
  O   O9        1.0  0.4746458217718579  0.612276181201196  0.29171863937213294  1.0000
  O   O10       1.0  0.5750267430506536  0.6073856671961647  0.9520122990839543  1.0000
  O   O11       1.0  0.37019640200969517  0.28640989376680215  0.005462941189549241  1.0000
  O   O12       1.0  0.08251997924057974  0.8435803894880436  0.15104714107406866  1.0000
data_image152
_chemical_formula_structural       Mg2C8O12
_chemical_formula_sum              "Mg2 C8 O12"
_cell_length_a       7.872530813609877
_cell_length_b       7.872530813609877
_cell_length_c       7.368803275525341
_cell_angle_alpha    62.34925540174321
_cell_angle_beta     62.34925540174321
_cell_angle_gamma    54.72736521231912

_space_group_name_H-M_alt    "P 1"
_space_group_IT_number       1

loop_
  _space_group_symop_operation_xyz
  'x, y, z'

loop_
  _atom_site_type_symbol
  _atom_site_label
  _atom_site_symmetry_multiplicity
  _atom_site_fract_x
  _atom_site_fract_y
  _atom_site_fract_z
  _atom_site_occupancy
  Mg  Mg1       1.0  0.5713179335680291  0.7718243439645265  0.3873967627073467  1.0000
  Mg  Mg2       1.0  0.3384600720105728  0.41287381387651634  0.7013130991943364  1.0000
  C   C1        1.0  0.4318977429986618  0.3585125107380317  0.19772123172470984  1.0000
  C   C2        1.0  0.45953585363672983  0.34643377905821815  0.007916544723174641  1.0000
  C   C3        1.0  0.47189536277967487  0.5328849029298152  0.1741649640490279  1.0000
  C   C4        1.0  0.5523961885686444  0.49188565606634876  0.8412538176488253  1.0000
  C   C5        1.0  0.3422424616469163  0.22690249028182988  0.41272859837426895  1.0000
  C   C6        1.0  0.8680683299809651  0.822905757670533  0.32955941526036503  1.0000
  C   C7        1.0  0.941909642936889  0.8763450878932451  0.65972453935828  1.0000
  C   C8        1.0  0.9459039469593742  0.38947902763705233  0.10228764224513487  1.0000
  O   O1        1.0  0.19948560087950096  0.33447589780200604  0.5666345340477947  1.0000
  O   O2        1.0  0.7743610443792956  0.7522070898211694  0.5156343356366802  1.0000
  O   O3        1.0  0.9460315617775048  0.04608246688512363  0.5622339817047037  1.0000
  O   O4        1.0  0.9934876505644107  0.3187414302702374  0.9716364147128291  1.0000
  O   O5        1.0  0.3582166951575715  0.07823903765295219  0.3756880041683005  1.0000
  O   O6        1.0  0.4622960726447564  0.593577031600285  0.6828188093109689  1.0000
  O   O7        1.0  0.9545238621866899  0.7060688781518593  0.7849812270638172  1.0000
  O   O8        1.0  0.9067172411460025  0.45905351069891553  0.24072538718539604  1.0000
  O   O9        1.0  0.3795161724191949  0.6760284731275802  0.27900234664912094  1.0000
  O   O10       1.0  0.5303667173095489  0.6278452433769411  0.9393432850494534  1.0000
  O   O11       1.0  0.392270859662754  0.28043843660930856  0.9449260032444017  1.0000
  O   O12       1.0  0.9844461745971955  0.8868808441733349  0.1807914567667016  1.0000
data_image153
_chemical_formula_structural       Mg2C8O12
_chemical_formula_sum              "Mg2 C8 O12"
_cell_length_a       7.872530813609877
_cell_length_b       7.872530813609877
_cell_length_c       7.368803275525341
_cell_angle_alpha    62.34925540174321
_cell_angle_beta     62.34925540174321
_cell_angle_gamma    54.72736521231912

_space_group_name_H-M_alt    "P 1"
_space_group_IT_number       1

loop_
  _space_group_symop_operation_xyz
  'x, y, z'

loop_
  _atom_site_type_symbol
  _atom_site_label
  _atom_site_symmetry_multiplicity
  _atom_site_fract_x
  _atom_site_fract_y
  _atom_site_fract_z
  _atom_site_occupancy
  Mg  Mg1       1.0  0.5217257269365793  0.7982020601598614  0.28423729565085876  1.0000
  Mg  Mg2       1.0  0.40561069123149207  0.42679076446946396  0.5885551371103158  1.0000
  C   C1        1.0  0.4257559927660429  0.36896996120520564  0.19955505768973775  1.0000
  C   C2        1.0  0.4386398819444697  0.3751952043837031  0.9846944338265905  1.0000
  C   C3        1.0  0.46103116805275046  0.5420926602749875  0.1548985618956454  1.0000
  C   C4        1.0  0.4331159207817812  0.5925590527089409  0.8438313167526479  1.0000
  C   C5        1.0  0.3670686419015976  0.22521828401273844  0.441169516933524  1.0000
  C   C6        1.0  0.8321310892218077  0.8264115550736539  0.3236440801175916  1.0000
  C   C7        1.0  0.9583905945280775  0.8337686688657869  0.7213782768945376  1.0000
  C   C8        1.0  0.9279848396602652  0.3877564337730197  0.15827666289119668  1.0000
  O   O1        1.0  0.2545024635660915  0.30431185372322  0.6155365045156049  1.0000
  O   O2        1.0  0.865738003218504  0.6731129689780664  0.49313728174051075  1.0000
  O   O3        1.0  0.7875630628505923  0.9807989502115837  0.7070202600562268  1.0000
  O   O4        1.0  0.02286183760169574  0.2119072135471567  0.12442293440386609  1.0000
  O   O5        1.0  0.4544342979144951  0.035163157491309126  0.4422573777012184  1.0000
  O   O6        1.0  0.48600071441118464  0.6433292121788674  0.6470935233098998  1.0000
  O   O7        1.0  0.08933444356556074  0.6758123194086973  0.7914047089520342  1.0000
  O   O8        1.0  0.8193889129619991  0.5461223899529224  0.22205810523814984  1.0000
  O   O9        1.0  0.37512394241035873  0.6602067709522479  0.28607638006965996  1.0000
  O   O10       1.0  0.4502289117211975  0.685086352256573  0.94364855666526  1.0000
  O   O11       1.0  0.48545508580321667  0.2621807603655376  0.874182123837644  1.0000
  O   O12       1.0  0.8918416887028846  0.9405198831222055  0.14873125450342034  1.0000
data_image154
_chemical_formula_structural       Mg2C8O12
_chemical_formula_sum              "Mg2 C8 O12"
_cell_length_a       7.872530813609877
_cell_length_b       7.872530813609877
_cell_length_c       7.368803275525341
_cell_angle_alpha    62.34925540174321
_cell_angle_beta     62.34925540174321
_cell_angle_gamma    54.72736521231912

_space_group_name_H-M_alt    "P 1"
_space_group_IT_number       1

loop_
  _space_group_symop_operation_xyz
  'x, y, z'

loop_
  _atom_site_type_symbol
  _atom_site_label
  _atom_site_symmetry_multiplicity
  _atom_site_fract_x
  _atom_site_fract_y
  _atom_site_fract_z
  _atom_site_occupancy
  Mg  Mg1       1.0  0.6306311877502017  0.7235005303544333  0.3774063246688765  1.0000
  Mg  Mg2       1.0  0.3652756706202328  0.4264873140607629  0.6148135510697469  1.0000
  C   C1        1.0  0.42353082976476913  0.3650469821818712  0.19804801821384074  1.0000
  C   C2        1.0  0.3820176885462549  0.4438363227404829  0.0002467315769092618  1.0000
  C   C3        1.0  0.4198898416889385  0.5806627666677889  0.17417094051247836  1.0000
  C   C4        1.0  0.4950251121697977  0.5572798147296544  0.862906803996924  1.0000
  C   C5        1.0  0.4083984153258142  0.15759941468855027  0.3911234464811002  1.0000
  C   C6        1.0  0.9313515208176246  0.77786673940471  0.2984437986415873  1.0000
  C   C7        1.0  0.8306073859954224  0.016182750392089496  0.6505672028771066  1.0000
  C   C8        1.0  0.9526467819880914  0.3567119495368789  0.15322402245450073  1.0000
  O   O1        1.0  0.3285081921828088  0.16628344512057575  0.5870735509443014  1.0000
  O   O2        1.0  0.9380568805878082  0.6320512378226512  0.45770621371650133  1.0000
  O   O3        1.0  0.6680737574455238  0.15931277351593987  0.6114753400446529  1.0000
  O   O4        1.0  0.023031126433619042  0.17822295223476892  0.25205977025339776  1.0000
  O   O5        1.0  0.4515970161041553  0.9826856394355566  0.3750479369155156  1.0000
  O   O6        1.0  0.532871106795834  0.56971162139969  0.6825314919018206  1.0000
  O   O7        1.0  0.972306280126349  0.8470038262063122  0.7268676657503153  1.0000
  O   O8        1.0  0.8258821869479273  0.547253058941938  0.15016952081024426  1.0000
  O   O9        1.0  0.40679072796115756  0.6393209114553071  0.3254693809309703  1.0000
  O   O10       1.0  0.4798510927381694  0.692999594791174  0.9398929816104106  1.0000
  O   O11       1.0  0.33834615649463545  0.32668807143051076  0.9587613920188867  1.0000
  O   O12       1.0  0.911068196056446  0.9153458461026859  0.12167063475022481  1.0000
data_image155
_chemical_formula_structural       Mg2C8O12
_chemical_formula_sum              "Mg2 C8 O12"
_cell_length_a       7.872530813609877
_cell_length_b       7.872530813609877
_cell_length_c       7.368803275525341
_cell_angle_alpha    62.34925540174321
_cell_angle_beta     62.34925540174321
_cell_angle_gamma    54.72736521231912

_space_group_name_H-M_alt    "P 1"
_space_group_IT_number       1

loop_
  _space_group_symop_operation_xyz
  'x, y, z'

loop_
  _atom_site_type_symbol
  _atom_site_label
  _atom_site_symmetry_multiplicity
  _atom_site_fract_x
  _atom_site_fract_y
  _atom_site_fract_z
  _atom_site_occupancy
  Mg  Mg1       1.0  0.6296263300346979  0.7116000718390838  0.319585751161766  1.0000
  Mg  Mg2       1.0  0.2287170829487417  0.44847391986600926  0.6359573252659723  1.0000
  C   C1        1.0  0.41499986191136495  0.3251099173310916  0.22632054610677318  1.0000
  C   C2        1.0  0.43938838446118533  0.3545386389130218  0.007441646391879395  1.0000
  C   C3        1.0  0.4343811710152233  0.5201075897489501  0.20596470969847044  1.0000
  C   C4        1.0  0.49194564411303704  0.53398539781251  0.8415963864933756  1.0000
  C   C5        1.0  0.35763117559893864  0.16074398358095757  0.40805287893954423  1.0000
  C   C6        1.0  0.9652161025859378  0.878036088271817  0.24523551187368453  1.0000
  C   C7        1.0  0.7849073099674096  0.03911995252602951  0.7486441074596499  1.0000
  C   C8        1.0  0.03893718021414104  0.3351174584209933  0.15534323507778391  1.0000
  O   O1        1.0  0.2266273642214628  0.2340621631327472  0.570721124223649  1.0000
  O   O2        1.0  0.9230833911633638  0.8242596068757678  0.42399434553996784  1.0000
  O   O3        1.0  0.6765472583333979  0.20481913427733334  0.6637771246399771  1.0000
  O   O4        1.0  0.10837563168458254  0.16080543562218685  0.13029680084260553  1.0000
  O   O5        1.0  0.41216261441023627  0.9857819120419576  0.38106009126014395  1.0000
  O   O6        1.0  0.5147901655692464  0.5970311577260735  0.6530077092606776  1.0000
  O   O7        1.0  0.9210880023379183  0.8412816814859647  0.807826750427314  1.0000
  O   O8        1.0  0.8974897421848078  0.49078160752779976  0.2198295327007067  1.0000
  O   O9        1.0  0.5109036212972802  0.5234477099230507  0.336521206168678  1.0000
  O   O10       1.0  0.5783981142083962  0.554872596892282  0.949820984770682  1.0000
  O   O11       1.0  0.2786267679567581  0.35142555300160094  0.9702751758451358  1.0000
  O   O12       1.0  0.9768306104519042  0.953833630284672  0.053753379539399  1.0000
data_image156
_chemical_formula_structural       Mg2C8O12
_chemical_formula_sum              "Mg2 C8 O12"
_cell_length_a       7.872530813609877
_cell_length_b       7.872530813609877
_cell_length_c       7.368803275525341
_cell_angle_alpha    62.34925540174321
_cell_angle_beta     62.34925540174321
_cell_angle_gamma    54.72736521231912

_space_group_name_H-M_alt    "P 1"
_space_group_IT_number       1

loop_
  _space_group_symop_operation_xyz
  'x, y, z'

loop_
  _atom_site_type_symbol
  _atom_site_label
  _atom_site_symmetry_multiplicity
  _atom_site_fract_x
  _atom_site_fract_y
  _atom_site_fract_z
  _atom_site_occupancy
  Mg  Mg1       1.0  0.5394611199631314  0.6579202011835894  0.41760932534331585  1.0000
  Mg  Mg2       1.0  0.22904263838852545  0.4055850341894396  0.6152883339919913  1.0000
  C   C1        1.0  0.33538264611752083  0.3684955252421692  0.18176457891050005  1.0000
  C   C2        1.0  0.4074212799208848  0.3772098008231007  0.9674440935455538  1.0000
  C   C3        1.0  0.3832789230472447  0.5132235058085072  0.20702285089387468  1.0000
  C   C4        1.0  0.48985819950879467  0.5582754506814144  0.8679490535022317  1.0000
  C   C5        1.0  0.3653968371595988  0.1562700052830356  0.3444276859344102  1.0000
  C   C6        1.0  0.9749960674069915  0.9301904782484202  0.1663084798767238  1.0000
  C   C7        1.0  0.864666368225129  0.9657272238384061  0.7392620226932298  1.0000
  C   C8        1.0  0.9185910333379524  0.3944083760677888  0.32497602313016705  1.0000
  O   O1        1.0  0.3919454916369689  0.14572126672002003  0.5214810411919333  1.0000
  O   O2        1.0  0.8303982458517352  0.9461449344548495  0.35065783059732136  1.0000
  O   O3        1.0  0.9046952736818962  0.10779838573562728  0.6361279503801083  1.0000
  O   O4        1.0  0.8931793380513604  0.320448238828295  0.24635118002603318  1.0000
  O   O5        1.0  0.4353806036159033  0.009014173692343358  0.2514251485623381  1.0000
  O   O6        1.0  0.5531115463465032  0.6559149763510853  0.6803745232885645  1.0000
  O   O7        1.0  0.8825387633475867  0.7844701426833053  0.818709552667148  1.0000
  O   O8        1.0  0.9305877756694106  0.5133119609257615  0.3791152737300765  1.0000
  O   O9        1.0  0.46024056729124907  0.4986152741828318  0.35087432944635694  1.0000
  O   O10       1.0  0.4946914902666651  0.6069314068574441  0.01077973025951417  1.0000
  O   O11       1.0  0.4183207976351465  0.3228070269466602  0.7950279343718103  1.0000
  O   O12       1.0  0.10897471823744986  0.8699032594620706  0.03275361986300706  1.0000
data_image157
_chemical_formula_structural       Mg2C8O12
_chemical_formula_sum              "Mg2 C8 O12"
_cell_length_a       7.872530813609877
_cell_length_b       7.872530813609877
_cell_length_c       7.368803275525341
_cell_angle_alpha    62.34925540174321
_cell_angle_beta     62.34925540174321
_cell_angle_gamma    54.72736521231912

_space_group_name_H-M_alt    "P 1"
_space_group_IT_number       1

loop_
  _space_group_symop_operation_xyz
  'x, y, z'

loop_
  _atom_site_type_symbol
  _atom_site_label
  _atom_site_symmetry_multiplicity
  _atom_site_fract_x
  _atom_site_fract_y
  _atom_site_fract_z
  _atom_site_occupancy
  Mg  Mg1       1.0  0.4277133783163603  0.7467703633043807  0.38985994247350536  1.0000
  Mg  Mg2       1.0  0.4170106765445327  0.21756906110480345  0.6358072734557746  1.0000
  C   C1        1.0  0.4365367768181523  0.3205012978241559  0.17633021939988242  1.0000
  C   C2        1.0  0.4550804026349374  0.36787472648735536  0.9526753235343636  1.0000
  C   C3        1.0  0.44354241391441457  0.4844480837738645  0.21364119544786542  1.0000
  C   C4        1.0  0.4857653583866488  0.5674467109570487  0.8744225116899031  1.0000
  C   C5        1.0  0.37909513042626186  0.13948023183244226  0.3284480849189799  1.0000
  C   C6        1.0  0.08140008618080197  0.873776766175465  0.19043539717630487  1.0000
  C   C7        1.0  0.8409359673898092  0.9511272682254879  0.7431845012419789  1.0000
  C   C8        1.0  0.9282215254167591  0.42827427581207567  0.2652599478063502  1.0000
  O   O1        1.0  0.2868498463641205  0.13595023933633793  0.5317633284045271  1.0000
  O   O2        1.0  0.9959447598388804  0.9465949008887579  0.34530713985725214  1.0000
  O   O3        1.0  0.9367832039193069  0.029568240079209662  0.7358369279810619  1.0000
  O   O4        1.0  0.7539863953473853  0.4501190297265212  0.2698023346441081  1.0000
  O   O5        1.0  0.376359424478111  0.027011032667542373  0.24835233715433905  1.0000
  O   O6        1.0  0.46537664905835946  0.6815159556005606  0.6829325036117568  1.0000
  O   O7        1.0  0.7194837671556471  0.9013564180215384  0.7744228898315544  1.0000
  O   O8        1.0  0.013098883231189951  0.4788426063289535  0.30508191975390875  1.0000
  O   O9        1.0  0.41772253252304337  0.5111074163100305  0.3898422139951293  1.0000
  O   O10       1.0  0.45466994971029545  0.6337402191055852  0.034451314011360056  1.0000
  O   O11       1.0  0.44944820784656775  0.313670064462934  0.8104413381520921  1.0000
  O   O12       1.0  0.08653785039405992  0.9189250358334242  0.997597915960601  1.0000
data_image158
_chemical_formula_structural       Mg2C8O12
_chemical_formula_sum              "Mg2 C8 O12"
_cell_length_a       7.872530813609877
_cell_length_b       7.872530813609877
_cell_length_c       7.368803275525341
_cell_angle_alpha    62.34925540174321
_cell_angle_beta     62.34925540174321
_cell_angle_gamma    54.72736521231912

_space_group_name_H-M_alt    "P 1"
_space_group_IT_number       1

loop_
  _space_group_symop_operation_xyz
  'x, y, z'

loop_
  _atom_site_type_symbol
  _atom_site_label
  _atom_site_symmetry_multiplicity
  _atom_site_fract_x
  _atom_site_fract_y
  _atom_site_fract_z
  _atom_site_occupancy
  Mg  Mg1       1.0  0.3182932666564321  0.7224685290877864  0.4710206270798603  1.0000
  Mg  Mg2       1.0  0.38121468469915565  0.22907087425432449  0.6473252934153406  1.0000
  C   C1        1.0  0.3683245476185998  0.3022379524412772  0.23586175442370091  1.0000
  C   C2        1.0  0.41375771130590616  0.3167849201539547  0.004750785559748386  1.0000
  C   C3        1.0  0.3985053366663747  0.45504251550191177  0.23306165975874496  1.0000
  C   C4        1.0  0.4491937086594829  0.5069508778376861  0.8853631233867717  1.0000
  C   C5        1.0  0.45900232989786405  0.07221045807966311  0.37719075799648993  1.0000
  C   C6        1.0  0.04629638327279517  0.963494798722246  0.14256292243958302  1.0000
  C   C7        1.0  0.7970585758777716  0.9874414868993345  0.7378278580788014  1.0000
  C   C8        1.0  0.8773444901542288  0.6522551242580132  0.19690282066792042  1.0000
  O   O1        1.0  0.6125783673730654  0.9872878007784605  0.4380387569924342  1.0000
  O   O2        1.0  0.12687921185260853  0.8117552393137489  0.285024455177199  1.0000
  O   O3        1.0  0.9293524834452489  0.048622205782660854  0.6575108070498525  1.0000
  O   O4        1.0  0.913826795873869  0.4865539269204797  0.1971452405475731  1.0000
  O   O5        1.0  0.4387133512938862  0.9469098346690136  0.3234003846462982  1.0000
  O   O6        1.0  0.4119114748536548  0.6541986037963403  0.7009544184577965  1.0000
  O   O7        1.0  0.739721398125261  0.8502917027682104  0.8086429798681065  1.0000
  O   O8        1.0  0.8849396850796198  0.8107260720813128  0.18163700227568969  1.0000
  O   O9        1.0  0.4774912800579574  0.4296049408502363  0.38496742794415606  1.0000
  O   O10       1.0  0.4721534893990939  0.5580390052742531  0.019401092780796873  1.0000
  O   O11       1.0  0.3293689704122907  0.25480669543394013  0.943093594386318  1.0000
  O   O12       1.0  0.019959549280170297  0.11757048562347705  0.9929112811080474  1.0000
data_image159
_chemical_formula_structural       Mg2C8O12
_chemical_formula_sum              "Mg2 C8 O12"
_cell_length_a       7.872530813609877
_cell_length_b       7.872530813609877
_cell_length_c       7.368803275525341
_cell_angle_alpha    62.34925540174321
_cell_angle_beta     62.34925540174321
_cell_angle_gamma    54.72736521231912

_space_group_name_H-M_alt    "P 1"
_space_group_IT_number       1

loop_
  _space_group_symop_operation_xyz
  'x, y, z'

loop_
  _atom_site_type_symbol
  _atom_site_label
  _atom_site_symmetry_multiplicity
  _atom_site_fract_x
  _atom_site_fract_y
  _atom_site_fract_z
  _atom_site_occupancy
  Mg  Mg1       1.0  0.3496310929649646  0.7105644417791601  0.42290031113764626  1.0000
  Mg  Mg2       1.0  0.47848178719205725  0.1639521643053583  0.6629898445566212  1.0000
  C   C1        1.0  0.46587754634364875  0.2128986432985447  0.1974251234606755  1.0000
  C   C2        1.0  0.3948985561937236  0.26050489051170556  0.023382423584928806  1.0000
  C   C3        1.0  0.4444620945978078  0.399271904636557  0.22296028895442369  1.0000
  C   C4        1.0  0.3743660703113807  0.49319288665322103  0.8935241824196365  1.0000
  C   C5        1.0  0.48366185202730483  0.005031970658982346  0.3490051672553609  1.0000
  C   C6        1.0  0.0334989812607942  0.10781059523693104  0.15881815862126392  1.0000
  C   C7        1.0  0.7948077115683476  0.9499422754632751  0.7779155224101786  1.0000
  C   C8        1.0  0.9485114316454485  0.7254948421585918  0.10980659762877498  1.0000
  O   O1        1.0  0.4685437164986149  0.9925343656633467  0.5357344578955084  1.0000
  O   O2        1.0  0.1454495966737519  0.9439134635928896  0.27879121663342976  1.0000
  O   O3        1.0  0.9290766661510762  0.029790200767209507  0.7071806040983861  1.0000
  O   O4        1.0  0.9336288478439576  0.5889494267828064  0.1161817592153167  1.0000
  O   O5        1.0  0.5214559024643961  0.8415793910277459  0.3098903162062464  1.0000
  O   O6        1.0  0.3481717233237793  0.6049689523267854  0.724891185252257  1.0000
  O   O7        1.0  0.7326892744216272  0.8272416717151746  0.8170561740444784  1.0000
  O   O8        1.0  0.933564649943954  0.887274609450809  0.11475994416592594  1.0000
  O   O9        1.0  0.45308711190325757  0.45324303926382586  0.36576771466916946  1.0000
  O   O10       1.0  0.3340749549326908  0.5783368227852892  0.08398152923204988  1.0000
  O   O11       1.0  0.3118645730149547  0.1815822661379918  0.9689018239015826  1.0000
  O   O12       1.0  0.9514807898869511  0.22114019256963016  0.019023626189036292  1.0000
data_image160
_chemical_formula_structural       Mg2C8O12
_chemical_formula_sum              "Mg2 C8 O12"
_cell_length_a       7.872530813609877
_cell_length_b       7.872530813609877
_cell_length_c       7.368803275525341
_cell_angle_alpha    62.34925540174321
_cell_angle_beta     62.34925540174321
_cell_angle_gamma    54.72736521231912

_space_group_name_H-M_alt    "P 1"
_space_group_IT_number       1

loop_
  _space_group_symop_operation_xyz
  'x, y, z'

loop_
  _atom_site_type_symbol
  _atom_site_label
  _atom_site_symmetry_multiplicity
  _atom_site_fract_x
  _atom_site_fract_y
  _atom_site_fract_z
  _atom_site_occupancy
  Mg  Mg1       1.0  0.27055073276256  0.7762347879975184  0.43804058122763834  1.0000
  Mg  Mg2       1.0  0.47911466087446364  0.12409433177765516  0.694339956669136  1.0000
  C   C1        1.0  0.43264644772014704  0.24523545852888406  0.2017941146471564  1.0000
  C   C2        1.0  0.41504830728512526  0.28717943211697233  0.006681753553153791  1.0000
  C   C3        1.0  0.404558593970248  0.4480241925933012  0.19502947296048181  1.0000
  C   C4        1.0  0.5117796594505956  0.43955988472327656  0.8529311576114098  1.0000
  C   C5        1.0  0.4549950054559865  0.027335879470630976  0.3734212835394095  1.0000
  C   C6        1.0  0.9665844464913729  0.15941909561695633  0.18984697945571838  1.0000
  C   C7        1.0  0.870373176338511  0.852334086068318  0.750394592310708  1.0000
  C   C8        1.0  0.9073850179304053  0.6893124154031824  0.16758630191574708  1.0000
  O   O1        1.0  0.43591031652372725  0.009044576622657285  0.554419975933585  1.0000
  O   O2        1.0  0.008698966768603267  0.02978465536246455  0.34632204667264943  1.0000
  O   O3        1.0  0.9923599267645201  0.8648527534340889  0.7686503244378742  1.0000
  O   O4        1.0  0.9710479495701084  0.5176272065221625  0.19308745708464525  1.0000
  O   O5        1.0  0.45635285286287836  0.9119264310233319  0.3009161797070664  1.0000
  O   O6        1.0  0.4503394725548252  0.5724240858198262  0.6661964429880234  1.0000
  O   O7        1.0  0.8403207998193483  0.7596661676349443  0.6804023368815557  1.0000
  O   O8        1.0  0.8304155282005741  0.8973548090403849  0.13178492756942006  1.0000
  O   O9        1.0  0.42099322679643225  0.47969832567680576  0.34355934775408625  1.0000
  O   O10       1.0  0.5011197086076612  0.5523741701862077  0.9664344990719844  1.0000
  O   O11       1.0  0.34543082549331006  0.19994133637330308  0.9721762497705824  1.0000
  O   O12       1.0  0.9110975855323111  0.32017351965156565  0.046455095679316175  1.0000
data_image161
_chemical_formula_structural       Mg2C8O12
_chemical_formula_sum              "Mg2 C8 O12"
_cell_length_a       7.872530813609877
_cell_length_b       7.872530813609877
_cell_length_c       7.368803275525341
_cell_angle_alpha    62.34925540174321
_cell_angle_beta     62.34925540174321
_cell_angle_gamma    54.72736521231912

_space_group_name_H-M_alt    "P 1"
_space_group_IT_number       1

loop_
  _space_group_symop_operation_xyz
  'x, y, z'

loop_
  _atom_site_type_symbol
  _atom_site_label
  _atom_site_symmetry_multiplicity
  _atom_site_fract_x
  _atom_site_fract_y
  _atom_site_fract_z
  _atom_site_occupancy
  Mg  Mg1       1.0  0.24131573527714834  0.875058127211803  0.37006776276251135  1.0000
  Mg  Mg2       1.0  0.5731095974136036  0.8782857898363607  0.7743556504930874  1.0000
  C   C1        1.0  0.37715040054562093  0.32587308417419386  0.20123328775520352  1.0000
  C   C2        1.0  0.4770380131408779  0.255687286153037  0.017442943724742435  1.0000
  C   C3        1.0  0.41461352727695716  0.502638485103698  0.13749162855990282  1.0000
  C   C4        1.0  0.5302732806112012  0.44173688899101665  0.812032903344182  1.0000
  C   C5        1.0  0.3237512033973975  0.19815474708905872  0.4483696206363034  1.0000
  C   C6        1.0  0.9530258838817272  0.21499914522498664  0.0834689207150966  1.0000
  C   C7        1.0  0.9566652732467686  0.7120652300292117  0.7782909809171696  1.0000
  C   C8        1.0  0.8227307153271121  0.6961282376034874  0.25394329409464733  1.0000
  O   O1        1.0  0.3196033533774296  0.20449887729118607  0.6292290439031459  1.0000
  O   O2        1.0  0.0031543122635149246  0.09677334374359026  0.25062897707512166  1.0000
  O   O3        1.0  0.11243455055020979  0.7322025674630209  0.7340105075582861  1.0000
  O   O4        1.0  0.8954274175550665  0.5090642349116947  0.2749608183296466  1.0000
  O   O5        1.0  0.2846185750727292  0.05145308153218734  0.4584134564786866  1.0000
  O   O6        1.0  0.6877280659628131  0.385380764758815  0.6614080571630727  1.0000
  O   O7        1.0  0.9009575470286759  0.6780439966116953  0.6641992669078649  1.0000
  O   O8        1.0  0.7358823069317277  0.8794246575484763  0.2442295238101564  1.0000
  O   O9        1.0  0.3707589169423242  0.6265894709302079  0.22697613395342023  1.0000
  O   O10       1.0  0.48986589459316493  0.589872358981162  0.9033843518817057  1.0000
  O   O11       1.0  0.48833764893553605  0.13712018262809472  0.9446190090541117  1.0000
  O   O12       1.0  0.8590977646509215  0.2991066390586646  0.9637807060609619  1.0000
data_image162
_chemical_formula_structural       Mg2C8O12
_chemical_formula_sum              "Mg2 C8 O12"
_cell_length_a       7.872530813609877
_cell_length_b       7.872530813609877
_cell_length_c       7.368803275525341
_cell_angle_alpha    62.34925540174321
_cell_angle_beta     62.34925540174321
_cell_angle_gamma    54.72736521231912

_space_group_name_H-M_alt    "P 1"
_space_group_IT_number       1

loop_
  _space_group_symop_operation_xyz
  'x, y, z'

loop_
  _atom_site_type_symbol
  _atom_site_label
  _atom_site_symmetry_multiplicity
  _atom_site_fract_x
  _atom_site_fract_y
  _atom_site_fract_z
  _atom_site_occupancy
  Mg  Mg1       1.0  0.29700463580572356  0.9558720798189746  0.40887786636783385  1.0000
  Mg  Mg2       1.0  0.42870496773368627  0.8812296418720462  0.9778963927604587  1.0000
  C   C1        1.0  0.40328143831596663  0.33070063066665334  0.16819931447352074  1.0000
  C   C2        1.0  0.3886213272626207  0.2465871267829521  0.03911903013420381  1.0000
  C   C3        1.0  0.3438865827883772  0.568753530436545  0.07014454153925796  1.0000
  C   C4        1.0  0.469009916552073  0.33023230946589704  0.833376790622131  1.0000
  C   C5        1.0  0.44667015624370676  0.19638769862906563  0.39590289332731776  1.0000
  C   C6        1.0  0.02287978268073987  0.1998114048103512  0.07946457346616931  1.0000
  C   C7        1.0  0.9113686991334183  0.7700317586630034  0.6602429341695046  1.0000
  C   C8        1.0  0.8225430496416983  0.6780862560424226  0.25325657225084597  1.0000
  O   O1        1.0  0.586197465399332  0.1486736945284417  0.4616860288362987  1.0000
  O   O2        1.0  0.11243277352129999  0.014728092655178049  0.2096659151587117  1.0000
  O   O3        1.0  0.07542032862968573  0.7998500558673797  0.563472297042487  1.0000
  O   O4        1.0  0.916380557483109  0.5531453511815667  0.1545342543781223  1.0000
  O   O5        1.0  0.27635810705407826  0.15712404487784828  0.5108196570642647  1.0000
  O   O6        1.0  0.6594388165211528  0.2744711602935609  0.7514332104913051  1.0000
  O   O7        1.0  0.7427050216447659  0.7866985503221556  0.7255899541160333  1.0000
  O   O8        1.0  0.7093369669404592  0.8031832158712611  0.35809035946678636  1.0000
  O   O9        1.0  0.372147843498144  0.6499363293756875  0.15179335321866408  1.0000
  O   O10       1.0  0.32770896556765194  0.6511616026896376  0.8751556096700296  1.0000
  O   O11       1.0  0.4668708368468314  0.001366886457037396  0.11817703114348582  1.0000
  O   O12       1.0  0.07212337222414833  0.2407770804751607  0.8820933469787935  1.0000
data_image163
_chemical_formula_structural       Mg2C8O12
_chemical_formula_sum              "Mg2 C8 O12"
_cell_length_a       7.872530813609877
_cell_length_b       7.872530813609877
_cell_length_c       7.368803275525341
_cell_angle_alpha    62.34925540174321
_cell_angle_beta     62.34925540174321
_cell_angle_gamma    54.72736521231912

_space_group_name_H-M_alt    "P 1"
_space_group_IT_number       1

loop_
  _space_group_symop_operation_xyz
  'x, y, z'

loop_
  _atom_site_type_symbol
  _atom_site_label
  _atom_site_symmetry_multiplicity
  _atom_site_fract_x
  _atom_site_fract_y
  _atom_site_fract_z
  _atom_site_occupancy
  Mg  Mg1       1.0  0.2588043881493087  0.9314232847570796  0.4689182818176166  1.0000
  Mg  Mg2       1.0  0.4326368676142972  0.8920586947296374  0.9737529774421388  1.0000
  C   C1        1.0  0.40101999825134765  0.31781580357094463  0.13896441738527224  1.0000
  C   C2        1.0  0.4426176418444371  0.17008373893857895  0.03274286491956474  1.0000
  C   C3        1.0  0.39091138993029645  0.5471036935304509  0.00885790574408459  1.0000
  C   C4        1.0  0.5838362255338255  0.2001178598342153  0.8239255973251822  1.0000
  C   C5        1.0  0.41645460064420947  0.20196898558015627  0.38461506471645956  1.0000
  C   C6        1.0  0.029030210320235117  0.2898476796532603  0.012189559192725352  1.0000
  C   C7        1.0  0.8793070067623641  0.8670505182252862  0.6619428019506337  1.0000
  C   C8        1.0  0.8686968009441463  0.5894964678285379  0.32051669386755965  1.0000
  O   O1        1.0  0.5665841302206992  0.17156928552849887  0.41043853750659637  1.0000
  O   O2        1.0  0.010378179405010624  0.15573864858461617  0.17959029072712762  1.0000
  O   O3        1.0  0.014107291073997219  0.8836818654835066  0.6705091734522781  1.0000
  O   O4        1.0  0.9068220300232338  0.5733476073804682  0.15307944805734675  1.0000
  O   O5        1.0  0.26610594247287245  0.14766946401586237  0.50638865266921  1.0000
  O   O6        1.0  0.6015335273905805  0.3365375125456368  0.6766407053424633  1.0000
  O   O7        1.0  0.7504629270332606  0.7920710808991925  0.720283899630201  1.0000
  O   O8        1.0  0.8360394740385882  0.5593019917655151  0.502514432325293  1.0000
  O   O9        1.0  0.4931897870044857  0.5921047914428856  0.09510839983018389  1.0000
  O   O10       1.0  0.2887071330196444  0.6737220063629524  0.8756234909058729  1.0000
  O   O11       1.0  0.43850566226762494  0.9893106078530829  0.15975370587998844  1.0000
  O   O12       1.0  0.04262033258550613  0.3304920714912437  0.8141766759025707  1.0000
data_image164
_chemical_formula_structural       Mg2C8O12
_chemical_formula_sum              "Mg2 C8 O12"
_cell_length_a       7.872530813609877
_cell_length_b       7.872530813609877
_cell_length_c       7.368803275525341
_cell_angle_alpha    62.34925540174321
_cell_angle_beta     62.34925540174321
_cell_angle_gamma    54.72736521231912

_space_group_name_H-M_alt    "P 1"
_space_group_IT_number       1

loop_
  _space_group_symop_operation_xyz
  'x, y, z'

loop_
  _atom_site_type_symbol
  _atom_site_label
  _atom_site_symmetry_multiplicity
  _atom_site_fract_x
  _atom_site_fract_y
  _atom_site_fract_z
  _atom_site_occupancy
  Mg  Mg1       1.0  0.28287112669797854  0.9015415216288323  0.5385513796269039  1.0000
  Mg  Mg2       1.0  0.4253936180294309  0.8796739514296885  0.8951240334824035  1.0000
  C   C1        1.0  0.41433455394351826  0.3149518181670142  0.12752572358049089  1.0000
  C   C2        1.0  0.4893869786757271  0.16672489770075616  0.03859754416213055  1.0000
  C   C3        1.0  0.3711171504109108  0.5335122508249377  0.9965152914450975  1.0000
  C   C4        1.0  0.6148971457706374  0.20237771873707408  0.8003807174854236  1.0000
  C   C5        1.0  0.4671976878503129  0.21158814410444843  0.3598559540818207  1.0000
  C   C6        1.0  0.9929101938721325  0.21164446045859342  0.053577349154482645  1.0000
  C   C7        1.0  0.8000659724953271  0.9668233708438996  0.7076910013043465  1.0000
  C   C8        1.0  0.8282198806280056  0.5651197562924568  0.3277784358288536  1.0000
  O   O1        1.0  0.5795332173093433  0.26927663160944365  0.3557538948853832  1.0000
  O   O2        1.0  0.08626666264064697  0.028885816364750738  0.18158430153658556  1.0000
  O   O3        1.0  0.013616122721817447  0.9042613640221592  0.6426164216135475  1.0000
  O   O4        1.0  0.6915768880624519  0.6039936564809283  0.26897858335489255  1.0000
  O   O5        1.0  0.3671633936682977  0.09614724886779663  0.5100874376568674  1.0000
  O   O6        1.0  0.7038796061891144  0.32624130190619727  0.6657971159205309  1.0000
  O   O7        1.0  0.6778897394103018  0.9127811658154846  0.7045679346510347  1.0000
  O   O8        1.0  0.9079633592295456  0.5149183415677001  0.4520536245224047  1.0000
  O   O9        1.0  0.3226146950738653  0.6520279671238466  0.10362377803732932  1.0000
  O   O10       1.0  0.41374269291666066  0.6320260725829718  0.7799261338146075  1.0000
  O   O11       1.0  0.4659785963105509  0.9652696154987018  0.1708438547866738  1.0000
  O   O12       1.0  0.9857928513869298  0.3711429781108926  0.9206652613460251  1.0000
data_image165
_chemical_formula_structural       Mg2C8O12
_chemical_formula_sum              "Mg2 C8 O12"
_cell_length_a       7.872530813609877
_cell_length_b       7.872530813609877
_cell_length_c       7.368803275525341
_cell_angle_alpha    62.34925540174321
_cell_angle_beta     62.34925540174321
_cell_angle_gamma    54.72736521231912

_space_group_name_H-M_alt    "P 1"
_space_group_IT_number       1

loop_
  _space_group_symop_operation_xyz
  'x, y, z'

loop_
  _atom_site_type_symbol
  _atom_site_label
  _atom_site_symmetry_multiplicity
  _atom_site_fract_x
  _atom_site_fract_y
  _atom_site_fract_z
  _atom_site_occupancy
  Mg  Mg1       1.0  0.30528898379305375  0.9615008655233255  0.42912169250099813  1.0000
  Mg  Mg2       1.0  0.47838107276521824  0.8345105439223492  0.9697965267386643  1.0000
  C   C1        1.0  0.4715143472447821  0.3288955484899164  0.08401631939567994  1.0000
  C   C2        1.0  0.5105238506024656  0.19228181710597733  0.9845326959443143  1.0000
  C   C3        1.0  0.3345002236192969  0.5728232424674801  0.007002210184001799  1.0000
  C   C4        1.0  0.7706405489035315  0.13672778220364934  0.7604806286322872  1.0000
  C   C5        1.0  0.44597515524947984  0.2573270546598214  0.34937433945267055  1.0000
  C   C6        1.0  0.00322665818112311  0.15152696282698996  0.09003020309360166  1.0000
  C   C7        1.0  0.8541704015317816  0.9150173037837478  0.6844253707421748  1.0000
  C   C8        1.0  0.761250606166968  0.5559536984900202  0.4220258935782011  1.0000
  O   O1        1.0  0.5153418013101797  0.3150124140826418  0.43437001124299357  1.0000
  O   O2        1.0  0.045719172087325344  0.05307007044837442  0.24851935058656394  1.0000
  O   O3        1.0  0.03930007574176675  0.8683993106034912  0.5739943049828695  1.0000
  O   O4        1.0  0.5674200714948332  0.6506994131185471  0.4624119226892136  1.0000
  O   O5        1.0  0.31285528463694523  0.17097295133038504  0.4644275602117127  1.0000
  O   O6        1.0  0.877099480782674  0.22008090088627058  0.61742336772146  1.0000
  O   O7        1.0  0.7496474709244061  0.8198490536134886  0.7451402582786797  1.0000
  O   O8        1.0  0.9309876402529691  0.546369681529403  0.28269571916518355  1.0000
  O   O9        1.0  0.3328272917909638  0.6794726281114308  0.10252892599900025  1.0000
  O   O10       1.0  0.24512833710284823  0.6685522271327946  0.8778642685033526  1.0000
  O   O11       1.0  0.4623996083364731  0.02389737129886309  0.06285776665251368  1.0000
  O   O12       1.0  0.8933882019169601  0.28280361522276704  0.9588168043721017  1.0000
data_image166
_chemical_formula_structural       Mg2C8O12
_chemical_formula_sum              "Mg2 C8 O12"
_cell_length_a       7.872530813609877
_cell_length_b       7.872530813609877
_cell_length_c       7.368803275525341
_cell_angle_alpha    62.34925540174321
_cell_angle_beta     62.34925540174321
_cell_angle_gamma    54.72736521231912

_space_group_name_H-M_alt    "P 1"
_space_group_IT_number       1

loop_
  _space_group_symop_operation_xyz
  'x, y, z'

loop_
  _atom_site_type_symbol
  _atom_site_label
  _atom_site_symmetry_multiplicity
  _atom_site_fract_x
  _atom_site_fract_y
  _atom_site_fract_z
  _atom_site_occupancy
  Mg  Mg1       1.0  0.253062334553478  0.9661141701315439  0.434955022525423  1.0000
  Mg  Mg2       1.0  0.493221807482618  0.8635739475737816  0.8689215395157712  1.0000
  C   C1        1.0  0.5074791071379684  0.25621568454494115  0.1163922392801205  1.0000
  C   C2        1.0  0.567790460314079  0.1170428560045879  0.005887699059913055  1.0000
  C   C3        1.0  0.38431657255359897  0.49777479379146866  0.0082233355731938  1.0000
  C   C4        1.0  0.66959107640286  0.1684294076469474  0.7542940905718241  1.0000
  C   C5        1.0  0.4785645213549137  0.19408456335692578  0.3456893497169061  1.0000
  C   C6        1.0  0.0032451460226834428  0.21090778633661245  0.11232242968790684  1.0000
  C   C7        1.0  0.8306598981740688  0.968080849685868  0.6738225798705413  1.0000
  C   C8        1.0  0.7360226911459443  0.6235244282823738  0.44860159905699093  1.0000
  O   O1        1.0  0.5456118949402577  0.20395986204407385  0.44712829554138905  1.0000
  O   O2        1.0  0.14716363961973755  0.163839058235427  0.17613706384869443  1.0000
  O   O3        1.0  0.036650619040834664  0.9133127274459205  0.6460112629607795  1.0000
  O   O4        1.0  0.5676032129216738  0.7016609923295964  0.5878340983650645  1.0000
  O   O5        1.0  0.3598067995863172  0.08986879962562268  0.4555588954976086  1.0000
  O   O6        1.0  0.7055124927885307  0.3146857264966765  0.6352575854254433  1.0000
  O   O7        1.0  0.7724648274934874  0.8618883627027641  0.6190772047527968  1.0000
  O   O8        1.0  0.8803186095465848  0.5549142641930462  0.29298997211238076  1.0000
  O   O9        1.0  0.39543999004856945  0.6556391194598855  0.02077093470153739  1.0000
  O   O10       1.0  0.22982142860238877  0.5141449423771988  0.9757448655435449  1.0000
  O   O11       1.0  0.49368159571971026  0.993099571090168  0.03611265773446154  1.0000
  O   O12       1.0  0.875606797414954  0.3375117766165982  0.021727174824636767  1.0000
data_image167
_chemical_formula_structural       Mg2C8O12
_chemical_formula_sum              "Mg2 C8 O12"
_cell_length_a       7.872530813609877
_cell_length_b       7.872530813609877
_cell_length_c       7.368803275525341
_cell_angle_alpha    62.34925540174321
_cell_angle_beta     62.34925540174321
_cell_angle_gamma    54.72736521231912

_space_group_name_H-M_alt    "P 1"
_space_group_IT_number       1

loop_
  _space_group_symop_operation_xyz
  'x, y, z'

loop_
  _atom_site_type_symbol
  _atom_site_label
  _atom_site_symmetry_multiplicity
  _atom_site_fract_x
  _atom_site_fract_y
  _atom_site_fract_z
  _atom_site_occupancy
  Mg  Mg1       1.0  0.3460587277840626  0.9189314287779797  0.4245223541218759  1.0000
  Mg  Mg2       1.0  0.5948039623333423  0.8071833874558052  0.8555756276325573  1.0000
  C   C1        1.0  0.4971617987802851  0.3004002063189253  0.08746824302841918  1.0000
  C   C2        1.0  0.5784613412104508  0.15156342264471184  0.9900989670439995  1.0000
  C   C3        1.0  0.3024109992956673  0.5635906322478648  0.9792342602183159  1.0000
  C   C4        1.0  0.729807035319732  0.12429717994143155  0.7889255292310129  1.0000
  C   C5        1.0  0.4721419880727835  0.21517627697661695  0.3216761046550201  1.0000
  C   C6        1.0  0.8820808333973016  0.32638737873927126  0.0893727252647376  1.0000
  C   C7        1.0  0.9354652748769362  0.9424515253415922  0.6821860916567954  1.0000
  C   C8        1.0  0.7534965162211421  0.5239334029242071  0.5122239939067574  1.0000
  O   O1        1.0  0.31218882954522564  0.3773143570769083  0.41070886760823266  1.0000
  O   O2        1.0  0.9324436539561327  0.1893494251938974  0.22664959575758348  1.0000
  O   O3        1.0  0.10846343984453366  0.9446798711658903  0.6065872312702172  1.0000
  O   O4        1.0  0.5754398156811837  0.6061850242012508  0.6222686777772071  1.0000
  O   O5        1.0  0.5651624491719669  0.9890374086908635  0.44190243050324357  1.0000
  O   O6        1.0  0.6888732095644285  0.2241354757757632  0.6122876692351722  1.0000
  O   O7        1.0  0.9017802667829686  0.7891609813793217  0.7051070598849745  1.0000
  O   O8        1.0  0.8995816281083006  0.5242940772295364  0.3642867857493599  1.0000
  O   O9        1.0  0.2881884284956271  0.7477488286684209  0.9474301386442172  1.0000
  O   O10       1.0  0.17639055187389246  0.5225237988968985  0.9710931798805169  1.0000
  O   O11       1.0  0.519543391713705  0.9801359630462547  0.07857189620682223  1.0000
  O   O12       1.0  0.7641628869825199  0.4828870638364847  0.9750654718435885  1.0000
data_image168
_chemical_formula_structural       Mg2C8O12
_chemical_formula_sum              "Mg2 C8 O12"
_cell_length_a       7.872530813609877
_cell_length_b       7.872530813609877
_cell_length_c       7.368803275525341
_cell_angle_alpha    62.34925540174321
_cell_angle_beta     62.34925540174321
_cell_angle_gamma    54.72736521231912

_space_group_name_H-M_alt    "P 1"
_space_group_IT_number       1

loop_
  _space_group_symop_operation_xyz
  'x, y, z'

loop_
  _atom_site_type_symbol
  _atom_site_label
  _atom_site_symmetry_multiplicity
  _atom_site_fract_x
  _atom_site_fract_y
  _atom_site_fract_z
  _atom_site_occupancy
  Mg  Mg1       1.0  0.3717504082929331  0.9071538086046724  0.44831426596104285  1.0000
  Mg  Mg2       1.0  0.5566714132538828  0.8085785463680819  0.8664311984408752  1.0000
  C   C1        1.0  0.4263412212837868  0.34819128338522337  0.10087615040539384  1.0000
  C   C2        1.0  0.5308800603106753  0.18743721665429744  0.9936345556570291  1.0000
  C   C3        1.0  0.28125469142098297  0.6111931777334885  0.033727818742705494  1.0000
  C   C4        1.0  0.708133246578005  0.1540283555063078  0.7733465478367708  1.0000
  C   C5        1.0  0.39225299277646786  0.2518504501898942  0.3739258265906311  1.0000
  C   C6        1.0  0.9344502015701899  0.31285955390950293  0.03735997898233223  1.0000
  C   C7        1.0  0.8901962293520795  0.9457092683380236  0.6956068594529503  1.0000
  C   C8        1.0  0.7633880070855119  0.4317331882089799  0.48678163247314843  1.0000
  O   O1        1.0  0.22541347091604502  0.33002166392435606  0.479894304870683  1.0000
  O   O2        1.0  0.11009687396283363  0.13826553402087272  0.0561139867794036  1.0000
  O   O3        1.0  0.10268933969555971  0.9104288106708363  0.5846562263172075  1.0000
  O   O4        1.0  0.6693660648652848  0.6017923099001008  0.5263069674679826  1.0000
  O   O5        1.0  0.565177538339417  0.06370371658317539  0.38229310044553183  1.0000
  O   O6        1.0  0.6325730861830161  0.31840240138604337  0.608883345192132  1.0000
  O   O7        1.0  0.8481103629131956  0.8153548497336678  0.7245406134173282  1.0000
  O   O8        1.0  0.956231571454728  0.30387045404458224  0.4211950521900285  1.0000
  O   O9        1.0  0.3462128999251861  0.6846219622941738  0.10829109320967602  1.0000
  O   O10       1.0  0.12459236516960107  0.6959965987638831  0.9913429008972345  1.0000
  O   O11       1.0  0.509110794584099  0.9969304530335235  0.08068626669609735  1.0000
  O   O12       1.0  0.8285975599561057  0.46288171464801436  0.9128725260075286  1.0000
data_image169
_chemical_formula_structural       Mg2C8O12
_chemical_formula_sum              "Mg2 C8 O12"
_cell_length_a       7.872530813609877
_cell_length_b       7.872530813609877
_cell_length_c       7.368803275525341
_cell_angle_alpha    62.34925540174321
_cell_angle_beta     62.34925540174321
_cell_angle_gamma    54.72736521231912

_space_group_name_H-M_alt    "P 1"
_space_group_IT_number       1

loop_
  _space_group_symop_operation_xyz
  'x, y, z'

loop_
  _atom_site_type_symbol
  _atom_site_label
  _atom_site_symmetry_multiplicity
  _atom_site_fract_x
  _atom_site_fract_y
  _atom_site_fract_z
  _atom_site_occupancy
  Mg  Mg1       1.0  0.29597508180852816  0.9791003510880887  0.44740360849485517  1.0000
  Mg  Mg2       1.0  0.5471736321451235  0.8518361098340044  0.9788252258298888  1.0000
  C   C1        1.0  0.41184179981759345  0.35800697642886614  0.16928649436819593  1.0000
  C   C2        1.0  0.5132584592343489  0.1907758467648315  0.06283160415852665  1.0000
  C   C3        1.0  0.3854113781179513  0.5648765633656507  0.0664553186197704  1.0000
  C   C4        1.0  0.6008219716031593  0.181124315321228  0.823546711480011  1.0000
  C   C5        1.0  0.36922684623800117  0.24880333768964874  0.41184583275343306  1.0000
  C   C6        1.0  0.13157558432531058  0.15254107502409875  0.7491833607681555  1.0000
  C   C7        1.0  0.8320131193953996  0.013382012129692589  0.7483092380087393  1.0000
  C   C8        1.0  0.7883748038842874  0.4982300301380729  0.3853133878905932  1.0000
  O   O1        1.0  0.1745860838342005  0.3620661384468877  0.5149956809419358  1.0000
  O   O2        1.0  0.2804115203668145  0.9765039473319632  0.7983801412418141  1.0000
  O   O3        1.0  0.026370890948857584  0.9725554041962702  0.6389288813074661  1.0000
  O   O4        1.0  0.616990120643347  0.6287485731120424  0.4802603973007207  1.0000
  O   O5        1.0  0.5319975646973116  0.06135681980403635  0.42906916058609035  1.0000
  O   O6        1.0  0.4749536873370019  0.31753694932039633  0.7030550039885839  1.0000
  O   O7        1.0  0.7999481141214977  0.8541727297625087  0.7964252667539913  1.0000
  O   O8        1.0  0.9325868228341925  0.40346859471427443  0.2572672458841807  1.0000
  O   O9        1.0  0.4837173556007499  0.6065291604137771  0.1266897454096476  1.0000
  O   O10       1.0  0.20915452708579985  0.7055353413643644  0.9864416471501036  1.0000
  O   O11       1.0  0.4590905043137705  0.0351535070091886  0.15191166047044163  1.0000
  O   O12       1.0  0.9785606174778123  0.24964173930305852  0.8826237198859069  1.0000
data_image170
_chemical_formula_structural       Mg2C8O12
_chemical_formula_sum              "Mg2 C8 O12"
_cell_length_a       7.872530813609877
_cell_length_b       7.872530813609877
_cell_length_c       7.368803275525341
_cell_angle_alpha    62.34925540174321
_cell_angle_beta     62.34925540174321
_cell_angle_gamma    54.72736521231912

_space_group_name_H-M_alt    "P 1"
_space_group_IT_number       1

loop_
  _space_group_symop_operation_xyz
  'x, y, z'

loop_
  _atom_site_type_symbol
  _atom_site_label
  _atom_site_symmetry_multiplicity
  _atom_site_fract_x
  _atom_site_fract_y
  _atom_site_fract_z
  _atom_site_occupancy
  Mg  Mg1       1.0  0.3664234519560508  0.9492933179765048  0.43166656175726453  1.0000
  Mg  Mg2       1.0  0.5063484632954911  0.893818964895088  0.9331850679354345  1.0000
  C   C1        1.0  0.5197158670840675  0.25811668710643304  0.2029154667541784  1.0000
  C   C2        1.0  0.43162500972443146  0.2328361064574987  0.09992616521484285  1.0000
  C   C3        1.0  0.4051328111808719  0.5114036463149659  0.14192346834136166  1.0000
  C   C4        1.0  0.40093626424489553  0.32564744303599774  0.9083066117418215  1.0000
  C   C5        1.0  0.42607306256294697  0.20000548934585985  0.449103149111003  1.0000
  C   C6        1.0  0.12640855286590647  0.14993072131876173  0.7322358235892823  1.0000
  C   C7        1.0  0.9379394088941375  0.9425076730166322  0.6849727668065821  1.0000
  C   C8        1.0  0.7761355326627898  0.5095762523041445  0.351653676044946  1.0000
  O   O1        1.0  0.21041559657867293  0.2964784025852013  0.4789872879710005  1.0000
  O   O2        1.0  0.2642308352965439  0.9549882589770345  0.7639187113038506  1.0000
  O   O3        1.0  0.08696589202093796  0.9309681565077224  0.5338832822867117  1.0000
  O   O4        1.0  0.7026378284061783  0.6382124656121382  0.4353858477093091  1.0000
  O   O5        1.0  0.562861139359693  0.11688059541257981  0.5371580326216665  1.0000
  O   O6        1.0  0.34868675646174574  0.411868762156421  0.7397794127119642  1.0000
  O   O7        1.0  0.8141309700247334  0.9195451495618839  0.8721795458025035  1.0000
  O   O8        1.0  0.8825774097588969  0.37482184125316875  0.24312744611299153  1.0000
  O   O9        1.0  0.47042345078699044  0.6456977476388951  0.1206801449580361  1.0000
  O   O10       1.0  0.24607677245038126  0.6071013468041279  0.0706380820749711  1.0000
  O   O11       1.0  0.3869884000130175  0.06184271894771199  0.11967883261076086  1.0000
  O   O12       1.0  0.9536110264993929  0.2556859354629674  0.8283390046467703  1.0000
data_image171
_chemical_formula_structural       Mg2C8O12
_chemical_formula_sum              "Mg2 C8 O12"
_cell_length_a       7.872530813609877
_cell_length_b       7.872530813609877
_cell_length_c       7.368803275525341
_cell_angle_alpha    62.34925540174321
_cell_angle_beta     62.34925540174321
_cell_angle_gamma    54.72736521231912

_space_group_name_H-M_alt    "P 1"
_space_group_IT_number       1

loop_
  _space_group_symop_operation_xyz
  'x, y, z'

loop_
  _atom_site_type_symbol
  _atom_site_label
  _atom_site_symmetry_multiplicity
  _atom_site_fract_x
  _atom_site_fract_y
  _atom_site_fract_z
  _atom_site_occupancy
  Mg  Mg1       1.0  0.40263132343680413  0.8612063435342749  0.47682107457135986  1.0000
  Mg  Mg2       1.0  0.48461843025363094  0.9956909244947649  0.8913310536111299  1.0000
  C   C1        1.0  0.4625767641356866  0.33214280580638617  0.23579150724718648  1.0000
  C   C2        1.0  0.44283713131514263  0.2554694986111189  0.1047766038673747  1.0000
  C   C3        1.0  0.3407642185201141  0.6100985015429443  0.13963944354024194  1.0000
  C   C4        1.0  0.3672257717982392  0.37002665961397047  0.9118888274627106  1.0000
  C   C5        1.0  0.3787711931786478  0.3193615060699674  0.4692223854911884  1.0000
  C   C6        1.0  0.19926582223960265  0.1042677692657481  0.7032368807939233  1.0000
  C   C7        1.0  0.9794269994973583  0.8829643997213863  0.6354694476162723  1.0000
  C   C8        1.0  0.8585991790099146  0.4199945797517237  0.2609657085541728  1.0000
  O   O1        1.0  0.18751763044731773  0.321409742561366  0.5625560858734024  1.0000
  O   O2        1.0  0.3655476439621852  0.9135070466235957  0.7258417287633068  1.0000
  O   O3        1.0  0.16764541775684338  0.8007260413830245  0.5597826753800033  1.0000
  O   O4        1.0  0.7518119095674795  0.5853289255409482  0.29368356361881176  1.0000
  O   O5        1.0  0.46778194926298633  0.2706215454343666  0.5981057244841612  1.0000
  O   O6        1.0  0.17815365022013116  0.4291081583981658  0.8978468675874627  1.0000
  O   O7        1.0  0.8204519496142365  0.8882882330622678  0.7779900733429133  1.0000
  O   O8        1.0  0.9320464579314693  0.2750048632323727  0.19940123812886967  1.0000
  O   O9        1.0  0.4225459087556398  0.7310365765624468  0.07637054789563794  1.0000
  O   O10       1.0  0.1397713847784003  0.669109822829275  0.19031150934622398  1.0000
  O   O11       1.0  0.4577946758773553  0.05675188849642324  0.18983176021112427  1.0000
  O   O12       1.0  0.012916478296359557  0.12968585559018145  0.7486803794883696  1.0000
data_image172
_chemical_formula_structural       Mg2C8O12
_chemical_formula_sum              "Mg2 C8 O12"
_cell_length_a       7.872530813609877
_cell_length_b       7.872530813609877
_cell_length_c       7.368803275525341
_cell_angle_alpha    62.34925540174321
_cell_angle_beta     62.34925540174321
_cell_angle_gamma    54.72736521231912

_space_group_name_H-M_alt    "P 1"
_space_group_IT_number       1

loop_
  _space_group_symop_operation_xyz
  'x, y, z'

loop_
  _atom_site_type_symbol
  _atom_site_label
  _atom_site_symmetry_multiplicity
  _atom_site_fract_x
  _atom_site_fract_y
  _atom_site_fract_z
  _atom_site_occupancy
  Mg  Mg1       1.0  0.4922460504218728  0.8154033699332177  0.36165353723080784  1.0000
  Mg  Mg2       1.0  0.45639839575045704  0.9980609557725819  0.910274216314723  1.0000
  C   C1        1.0  0.37995268670889415  0.4081499562791296  0.3085531622776716  1.0000
  C   C2        1.0  0.3435697563253763  0.33077992687072116  0.15568688978000275  1.0000
  C   C3        1.0  0.30051907136495676  0.6610185994155208  0.19311058829752173  1.0000
  C   C4        1.0  0.24448196599327543  0.39576403850465125  0.9943038217432859  1.0000
  C   C5        1.0  0.4022512654650503  0.2677529784075729  0.5140594417897436  1.0000
  C   C6        1.0  0.16631006608065801  0.10819830593451729  0.6734944757855834  1.0000
  C   C7        1.0  0.0335003633462001  0.7845095245535932  0.6193188393233835  1.0000
  C   C8        1.0  0.8299129069849615  0.3919033382856303  0.30625125646391793  1.0000
  O   O1        1.0  0.19794852109416206  0.27649008828499727  0.6696217042094366  1.0000
  O   O2        1.0  0.3355385310421468  0.9246727089303634  0.6502861183503013  1.0000
  O   O3        1.0  0.22068303313474535  0.7018017282419037  0.5166808167695336  1.0000
  O   O4        1.0  0.7431579756807493  0.5623487956473348  0.3491745871605316  1.0000
  O   O5        1.0  0.5423160141525102  0.20750027773923835  0.6100913992375554  1.0000
  O   O6        1.0  0.08383520657787893  0.5118828552744026  0.9378836142053775  1.0000
  O   O7        1.0  0.8668553722484188  0.8892741141301272  0.7175000526460451  1.0000
  O   O8        1.0  0.9860415026463266  0.2337094989440498  0.2517339113544428  1.0000
  O   O9        1.0  0.4633313970724018  0.7272917965470205  0.09786696415123682  1.0000
  O   O10       1.0  0.1288490743384685  0.7840949670539498  0.15619206201767402  1.0000
  O   O11       1.0  0.49871989097029995  0.09005075900806823  0.1503685893116404  1.0000
  O   O12       1.0  0.9899836435626643  0.18800361058533369  0.6320164452613413  1.0000
data_image173
_chemical_formula_structural       Mg2C8O12
_chemical_formula_sum              "Mg2 C8 O12"
_cell_length_a       7.872530813609877
_cell_length_b       7.872530813609877
_cell_length_c       7.368803275525341
_cell_angle_alpha    62.34925540174321
_cell_angle_beta     62.34925540174321
_cell_angle_gamma    54.72736521231912

_space_group_name_H-M_alt    "P 1"
_space_group_IT_number       1

loop_
  _space_group_symop_operation_xyz
  'x, y, z'

loop_
  _atom_site_type_symbol
  _atom_site_label
  _atom_site_symmetry_multiplicity
  _atom_site_fract_x
  _atom_site_fract_y
  _atom_site_fract_z
  _atom_site_occupancy
  Mg  Mg1       1.0  0.49254017071456085  0.7880110867878258  0.3437332525434263  1.0000
  Mg  Mg2       1.0  0.3216189940533296  0.022281351948253425  0.941462351048077  1.0000
  C   C1        1.0  0.43350883323288564  0.4188032719676007  0.20004043612759073  1.0000
  C   C2        1.0  0.424191134099904  0.2940212198621328  0.11712752074869229  1.0000
  C   C3        1.0  0.3818900274298882  0.6501519786847104  0.12809672875868422  1.0000
  C   C4        1.0  0.23198411945621442  0.41864966289347005  0.9885504754786061  1.0000
  C   C5        1.0  0.45099642463864364  0.30158323965602163  0.4300366712980029  1.0000
  C   C6        1.0  0.16733162510870514  0.12502469993770493  0.6578040762642061  1.0000
  C   C7        1.0  0.06207789733360847  0.7737549034191505  0.5522029646786573  1.0000
  C   C8        1.0  0.7893999649789036  0.4083286190941964  0.42815354741988165  1.0000
  O   O1        1.0  0.21347271439094173  0.2949253074679883  0.5880310527468281  1.0000
  O   O2        1.0  0.2566134219078875  0.9933864625647233  0.5488618127367231  1.0000
  O   O3        1.0  0.23990844039463965  0.7185046922007788  0.5683014136182294  1.0000
  O   O4        1.0  0.6838229386892746  0.5489651900570243  0.5083591894423609  1.0000
  O   O5        1.0  0.5689650149872794  0.17818853787999686  0.5604318514944023  1.0000
  O   O6        1.0  0.06772809427082956  0.5429815459971618  0.0920302360560577  1.0000
  O   O7        1.0  0.8987090473183315  0.8057919664214137  0.5487838423497826  1.0000
  O   O8        1.0  0.9046078383507773  0.2652761225878164  0.33566448136513216  1.0000
  O   O9        1.0  0.5306402784105435  0.7183546841547974  0.07282548327001351  1.0000
  O   O10       1.0  0.19036045245335032  0.8076160834743226  0.09375061769018217  1.0000
  O   O11       1.0  0.4924556669964323  0.08012343969820879  0.15954226680972278  1.0000
  O   O12       1.0  0.033447314998436894  0.11673366869765973  0.838606210638078  1.0000
data_image174
_chemical_formula_structural       Mg2C8O12
_chemical_formula_sum              "Mg2 C8 O12"
_cell_length_a       7.872530813609877
_cell_length_b       7.872530813609877
_cell_length_c       7.368803275525341
_cell_angle_alpha    62.34925540174321
_cell_angle_beta     62.34925540174321
_cell_angle_gamma    54.72736521231912

_space_group_name_H-M_alt    "P 1"
_space_group_IT_number       1

loop_
  _space_group_symop_operation_xyz
  'x, y, z'

loop_
  _atom_site_type_symbol
  _atom_site_label
  _atom_site_symmetry_multiplicity
  _atom_site_fract_x
  _atom_site_fract_y
  _atom_site_fract_z
  _atom_site_occupancy
  Mg  Mg1       1.0  0.5201161338975672  0.8872939218333273  0.33344135602848174  1.0000
  Mg  Mg2       1.0  0.4038712142261227  0.9845541594546146  0.8257343809155894  1.0000
  C   C1        1.0  0.48465428608822875  0.389195765007405  0.2237777380812071  1.0000
  C   C2        1.0  0.4099679959089913  0.33664293366568715  0.10492731105683852  1.0000
  C   C3        1.0  0.4692832571979641  0.6004444487162611  0.1895996581995838  1.0000
  C   C4        1.0  0.2823544450319504  0.49960069591955836  0.956007377446158  1.0000
  C   C5        1.0  0.4318844569119641  0.26152079253659505  0.47612838247135736  1.0000
  C   C6        1.0  0.13476057303807476  0.16384150566593325  0.6528401423225958  1.0000
  C   C7        1.0  0.9482634581201957  0.7251056629742023  0.5045021416132223  1.0000
  C   C8        1.0  0.7829581583098676  0.3782614310148562  0.5062183618434957  1.0000
  O   O1        1.0  0.2131525790990102  0.33026544462611723  0.5596351531152377  1.0000
  O   O2        1.0  0.27023891256255883  0.9949195234674989  0.5716357772343819  1.0000
  O   O3        1.0  0.012279659131084752  0.7489011350544912  0.6167781757282396  1.0000
  O   O4        1.0  0.6295646216012886  0.47519162828473216  0.617434805908482  1.0000
  O   O5        1.0  0.5572885318563511  0.13913638664920602  0.5964368779294968  1.0000
  O   O6        1.0  0.09912198240643035  0.6019960092764151  0.9763817655776419  1.0000
  O   O7        1.0  0.8531567856398532  0.7484019778751198  0.39645462461561465  1.0000
  O   O8        1.0  0.920712163600666  0.24039680403251218  0.4293814481997482  1.0000
  O   O9        1.0  0.49285531968305385  0.6542043527749667  0.29720358787016016  1.0000
  O   O10       1.0  0.3813542677399285  0.7351904622428451  0.048040224939738266  1.0000
  O   O11       1.0  0.5119166978135146  0.13374067022738267  0.11671332676524045  1.0000
  O   O12       1.0  0.9716617763587512  0.20171954491427507  0.795118675040822  1.0000
data_image175
_chemical_formula_structural       Mg2C8O12
_chemical_formula_sum              "Mg2 C8 O12"
_cell_length_a       7.872530813609877
_cell_length_b       7.872530813609877
_cell_length_c       7.368803275525341
_cell_angle_alpha    62.34925540174321
_cell_angle_beta     62.34925540174321
_cell_angle_gamma    54.72736521231912

_space_group_name_H-M_alt    "P 1"
_space_group_IT_number       1

loop_
  _space_group_symop_operation_xyz
  'x, y, z'

loop_
  _atom_site_type_symbol
  _atom_site_label
  _atom_site_symmetry_multiplicity
  _atom_site_fract_x
  _atom_site_fract_y
  _atom_site_fract_z
  _atom_site_occupancy
  Mg  Mg1       1.0  0.554121752543232  0.8180205941991174  0.3114840184696707  1.0000
  Mg  Mg2       1.0  0.44691479277130985  0.9549581556071662  0.8611100500519284  1.0000
  C   C1        1.0  0.4254649084900975  0.37667469455703545  0.29265904705646323  1.0000
  C   C2        1.0  0.42385995018168393  0.3290666330778327  0.11872621557489323  1.0000
  C   C3        1.0  0.4225141905544368  0.6026772843946252  0.1904850722857468  1.0000
  C   C4        1.0  0.3011699938594901  0.5048059152752167  0.9791122016252352  1.0000
  C   C5        1.0  0.32727112696675176  0.3211539470627374  0.4999258275229676  1.0000
  C   C6        1.0  0.2116872526497282  0.03715726492298521  0.6964763281260296  1.0000
  C   C7        1.0  0.847650065975435  0.8305646658573734  0.4383987548100383  1.0000
  C   C8        1.0  0.8288873870167636  0.36649484900614926  0.5031303529981108  1.0000
  O   O1        1.0  0.14148884904644288  0.3496779565133868  0.5532693597879705  1.0000
  O   O2        1.0  0.3821282060411155  0.8943252350197222  0.6248958415664101  1.0000
  O   O3        1.0  0.8108114004692282  0.7924610559629015  0.6322116628027481  1.0000
  O   O4        1.0  0.7609407706050306  0.5486212777929944  0.4764688971241777  1.0000
  O   O5        1.0  0.4445487860263601  0.22153557417603156  0.6425993150806814  1.0000
  O   O6        1.0  0.1368892499161264  0.6338583193164494  0.9688731092384153  1.0000
  O   O7        1.0  0.9017141448773488  0.9139082425306565  0.25918245874070234  1.0000
  O   O8        1.0  0.8882951922094912  0.2165127591480709  0.45153861933341943  1.0000
  O   O9        1.0  0.37816264273491496  0.7037375609370946  0.3288743828740032  1.0000
  O   O10       1.0  0.5095289445813331  0.6542452077646768  0.9908949190977417  1.0000
  O   O11       1.0  0.4667572582188902  0.14582309464001778  0.11810028657211753  1.0000
  O   O12       1.0  0.09343527929274043  0.0679284348520454  0.8731619006284388  1.0000
data_image176
_chemical_formula_structural       Mg2C8O12
_chemical_formula_sum              "Mg2 C8 O12"
_cell_length_a       7.872530813609877
_cell_length_b       7.872530813609877
_cell_length_c       7.368803275525341
_cell_angle_alpha    62.34925540174321
_cell_angle_beta     62.34925540174321
_cell_angle_gamma    54.72736521231912

_space_group_name_H-M_alt    "P 1"
_space_group_IT_number       1

loop_
  _space_group_symop_operation_xyz
  'x, y, z'

loop_
  _atom_site_type_symbol
  _atom_site_label
  _atom_site_symmetry_multiplicity
  _atom_site_fract_x
  _atom_site_fract_y
  _atom_site_fract_z
  _atom_site_occupancy
  Mg  Mg1       1.0  0.4353172510588467  0.9257303042056775  0.3981887356995214  1.0000
  Mg  Mg2       1.0  0.5290861990539713  0.9195949562228576  0.8924249943624633  1.0000
  C   C1        1.0  0.3694124713825745  0.4294804261393392  0.262341994345195  1.0000
  C   C2        1.0  0.39983943201827477  0.3261453757601078  0.11080847697490456  1.0000
  C   C3        1.0  0.4686526765791582  0.5856208987389553  0.16886824900751476  1.0000
  C   C4        1.0  0.22038350462451936  0.4391013708772939  0.0021441461183274294  1.0000
  C   C5        1.0  0.3450471389467449  0.3187511358729168  0.46408130698252786  1.0000
  C   C6        1.0  0.1881671686694979  0.058088288485439676  0.7303924827489381  1.0000
  C   C7        1.0  0.7754211877321892  0.9181723023576476  0.5328692284461016  1.0000
  C   C8        1.0  0.8455136441782976  0.42035944757121757  0.3769742924006021  1.0000
  O   O1        1.0  0.20315644177213343  0.23314033988212524  0.5462186108618247  1.0000
  O   O2        1.0  0.15896015660714102  0.9711166859090151  0.6446399870277015  1.0000
  O   O3        1.0  0.831392685161194  0.8922379585238635  0.6801309894481993  1.0000
  O   O4        1.0  0.705054937291532  0.5531621279456753  0.4718657155928092  1.0000
  O   O5        1.0  0.4441424397501107  0.31265320323482715  0.566142887210256  1.0000
  O   O6        1.0  0.16827007166204463  0.49292925266024296  0.8426754120452287  1.0000
  O   O7        1.0  0.8486180501435777  0.8633607526147957  0.3833353356789939  1.0000
  O   O8        1.0  0.987219955222648  0.23850152925007517  0.36398821522069946  1.0000
  O   O9        1.0  0.35978277360531874  0.7438253236257218  0.24797092996548314  1.0000
  O   O10       1.0  0.6640325757281228  0.48821875964901684  0.05798129022152409  1.0000
  O   O11       1.0  0.5255013666089732  0.13193091050147396  0.08704564739041108  1.0000
  O   O12       1.0  0.20604141818011712  0.01841333397931986  0.9032099664056419  1.0000
data_image177
_chemical_formula_structural       Mg2C8O12
_chemical_formula_sum              "Mg2 C8 O12"
_cell_length_a       7.872530813609877
_cell_length_b       7.872530813609877
_cell_length_c       7.368803275525341
_cell_angle_alpha    62.34925540174321
_cell_angle_beta     62.34925540174321
_cell_angle_gamma    54.72736521231912

_space_group_name_H-M_alt    "P 1"
_space_group_IT_number       1

loop_
  _space_group_symop_operation_xyz
  'x, y, z'

loop_
  _atom_site_type_symbol
  _atom_site_label
  _atom_site_symmetry_multiplicity
  _atom_site_fract_x
  _atom_site_fract_y
  _atom_site_fract_z
  _atom_site_occupancy
  Mg  Mg1       1.0  0.38585498918409233  0.7987614480379632  0.40335816743054675  1.0000
  Mg  Mg2       1.0  0.4012307158808076  0.11779416186100744  0.9229061745900103  1.0000
  C   C1        1.0  0.44829541973538767  0.38059269547113495  0.21831105597019876  1.0000
  C   C2        1.0  0.449987791998808  0.2754641154370571  0.104109335059935  1.0000
  C   C3        1.0  0.527986134716697  0.5631378614803876  0.07474706928737905  1.0000
  C   C4        1.0  0.271086884490082  0.46787600005189667  0.017868216152591983  1.0000
  C   C5        1.0  0.4096659334835637  0.29118790737307304  0.4641920353897211  1.0000
  C   C6        1.0  0.2193879228177762  0.0616992615409413  0.7140209161003366  1.0000
  C   C7        1.0  0.8386356466672441  0.8388705559644217  0.5604573280423983  1.0000
  C   C8        1.0  0.7899823318651968  0.42576434255701856  0.42658339164432646  1.0000
  O   O1        1.0  0.2473205909765982  0.20655336126960636  0.5262686768221233  1.0000
  O   O2        1.0  0.28948025820795076  0.8690527589545177  0.6860176462560987  1.0000
  O   O3        1.0  0.9277157941372727  0.8825528254008894  0.6094087354150641  1.0000
  O   O4        1.0  0.6679074546339183  0.5572773427191187  0.5225407807859104  1.0000
  O   O5        1.0  0.4724026606938036  0.32127064679560396  0.562296491998911  1.0000
  O   O6        1.0  0.15031378909346302  0.5173754175193918  0.9209282047699122  1.0000
  O   O7        1.0  0.6596018202854503  0.8593810806391321  0.5763183607085289  1.0000
  O   O8        1.0  0.9125777478732929  0.3160645488613678  0.30951059513511403  1.0000
  O   O9        1.0  0.44599787730324736  0.725205995037449  0.16282307188645015  1.0000
  O   O10       1.0  0.6717507051237721  0.5276373783844384  0.9094953960023644  1.0000
  O   O11       1.0  0.5182479791950606  0.061079134795695676  0.1372616136091601  1.0000
  O   O12       1.0  0.15035549608062615  0.13070740100850342  0.8675564373692259  1.0000
data_image178
_chemical_formula_structural       Mg2C8O12
_chemical_formula_sum              "Mg2 C8 O12"
_cell_length_a       7.872530813609877
_cell_length_b       7.872530813609877
_cell_length_c       7.368803275525341
_cell_angle_alpha    62.34925540174321
_cell_angle_beta     62.34925540174321
_cell_angle_gamma    54.72736521231912

_space_group_name_H-M_alt    "P 1"
_space_group_IT_number       1

loop_
  _space_group_symop_operation_xyz
  'x, y, z'

loop_
  _atom_site_type_symbol
  _atom_site_label
  _atom_site_symmetry_multiplicity
  _atom_site_fract_x
  _atom_site_fract_y
  _atom_site_fract_z
  _atom_site_occupancy
  Mg  Mg1       1.0  0.42343116901176275  0.7891992445547973  0.35322880915750615  1.0000
  Mg  Mg2       1.0  0.32399622983260856  0.18302463891813248  0.8696513574016508  1.0000
  C   C1        1.0  0.44564280663330375  0.3305572137333379  0.25055521636853256  1.0000
  C   C2        1.0  0.41018687519952224  0.27270508806140964  0.13171372205826168  1.0000
  C   C3        1.0  0.5406359638169483  0.48313161757273637  0.1313235067838847  1.0000
  C   C4        1.0  0.2852380381861284  0.4368840515237504  0.9514308277618239  1.0000
  C   C5        1.0  0.3172466802549476  0.3488815129986759  0.4589027591767319  1.0000
  C   C6        1.0  0.18094999387458044  0.007282509806386672  0.7715324784570106  1.0000
  C   C7        1.0  0.945088603668394  0.8221205836013912  0.5790610805410241  1.0000
  C   C8        1.0  0.8189837353311383  0.41577181931596585  0.3952566284274406  1.0000
  O   O1        1.0  0.12058252741073383  0.45790344077585543  0.4890754185686292  1.0000
  O   O2        1.0  0.255454047249573  0.9550237586704438  0.6118168907573909  1.0000
  O   O3        1.0  0.11734049723501494  0.8112602347936104  0.5534770205935651  1.0000
  O   O4        1.0  0.6751028934437517  0.5247957578032076  0.5107598207177748  1.0000
  O   O5        1.0  0.4348122407528146  0.31454806367584953  0.5734734309719045  1.0000
  O   O6        1.0  0.13770601733331916  0.6199950973965762  0.9176021332853767  1.0000
  O   O7        1.0  0.7869514447397141  0.8527274426035171  0.6072783572361371  1.0000
  O   O8        1.0  0.9508224477279839  0.2862892813568454  0.2919864046298126  1.0000
  O   O9        1.0  0.40754504251887314  0.6377703703413513  0.2343698694571384  1.0000
  O   O10       1.0  0.7083195783107333  0.4375566461079446  0.9760036919302753  1.0000
  O   O11       1.0  0.4151884514947426  0.08655733115244034  0.19244101358519566  1.0000
  O   O12       1.0  0.1746168027181736  0.04556204860050111  0.918970283093759  1.0000
data_image179
_chemical_formula_structural       Mg2C8O12
_chemical_formula_sum              "Mg2 C8 O12"
_cell_length_a       7.872530813609877
_cell_length_b       7.872530813609877
_cell_length_c       7.368803275525341
_cell_angle_alpha    62.34925540174321
_cell_angle_beta     62.34925540174321
_cell_angle_gamma    54.72736521231912

_space_group_name_H-M_alt    "P 1"
_space_group_IT_number       1

loop_
  _space_group_symop_operation_xyz
  'x, y, z'

loop_
  _atom_site_type_symbol
  _atom_site_label
  _atom_site_symmetry_multiplicity
  _atom_site_fract_x
  _atom_site_fract_y
  _atom_site_fract_z
  _atom_site_occupancy
  Mg  Mg1       1.0  0.38425896207342786  0.7768354396882375  0.3549464225854963  1.0000
  Mg  Mg2       1.0  0.3801143565167807  0.21330944972128507  0.8424119482041468  1.0000
  C   C1        1.0  0.4560914191603032  0.34305350404893775  0.19744022645525874  1.0000
  C   C2        1.0  0.35590684569833764  0.29492890208427425  0.1128839029938282  1.0000
  C   C3        1.0  0.5902564875130984  0.46291717395442644  0.0935079613710606  1.0000
  C   C4        1.0  0.20924926865365306  0.4525937928736787  0.0010644451796800354  1.0000
  C   C5        1.0  0.3312650929399853  0.36602030495643567  0.4245186309105123  1.0000
  C   C6        1.0  0.23852524291686938  0.006199660124294626  0.7542359488389896  1.0000
  C   C7        1.0  0.8908347795988065  0.8410297349536487  0.589093577113007  1.0000
  C   C8        1.0  0.8071662985527653  0.3946529408969317  0.4900128227540279  1.0000
  O   O1        1.0  0.14268464620460075  0.392185452927812  0.453905668313177  1.0000
  O   O2        1.0  0.31862066823487023  0.966302467989323  0.5807613331585455  1.0000
  O   O3        1.0  0.08268010488477029  0.786269171670131  0.5404623687545052  1.0000
  O   O4        1.0  0.72532648783627  0.5718838740594885  0.40327493046980223  1.0000
  O   O5        1.0  0.4004670504392058  0.3737449324206641  0.5495471218337928  1.0000
  O   O6        1.0  0.11339706552558926  0.6590474671913107  0.9901748859918066  1.0000
  O   O7        1.0  0.6934836019745869  0.9061910901460837  0.6591600883326982  1.0000
  O   O8        1.0  0.8680805682823146  0.22087761526939076  0.5693013334579318  1.0000
  O   O9        1.0  0.5351806004054824  0.598567931774986  0.1666906700506962  1.0000
  O   O10       1.0  0.7103769475961986  0.4118964047674737  0.9296227341537671  1.0000
  O   O11       1.0  0.4235821068263505  0.08747408578748761  0.14531853700657005  1.0000
  O   O12       1.0  0.1948470301042815  0.9936486966439251  0.933594540805192  1.0000
data_image180
_chemical_formula_structural       Mg2C8O12
_chemical_formula_sum              "Mg2 C8 O12"
_cell_length_a       7.872530813609877
_cell_length_b       7.872530813609877
_cell_length_c       7.368803275525341
_cell_angle_alpha    62.34925540174321
_cell_angle_beta     62.34925540174321
_cell_angle_gamma    54.72736521231912

_space_group_name_H-M_alt    "P 1"
_space_group_IT_number       1

loop_
  _space_group_symop_operation_xyz
  'x, y, z'

loop_
  _atom_site_type_symbol
  _atom_site_label
  _atom_site_symmetry_multiplicity
  _atom_site_fract_x
  _atom_site_fract_y
  _atom_site_fract_z
  _atom_site_occupancy
  Mg  Mg1       1.0  0.5034871475163663  0.792145868018153  0.3397954855625005  1.0000
  Mg  Mg2       1.0  0.4179636501363405  0.10301133693942155  0.8694149246243706  1.0000
  C   C1        1.0  0.4205647256302755  0.3818453098206621  0.23043647804808287  1.0000
  C   C2        1.0  0.41704201666145024  0.293900549220966  0.08502779422182087  1.0000
  C   C3        1.0  0.5179943046046036  0.5103297265029436  0.1111940740528741  1.0000
  C   C4        1.0  0.3359207224940872  0.4890944220455017  0.916048696309284  1.0000
  C   C5        1.0  0.30256741940239573  0.3718433110209581  0.4492425618466316  1.0000
  C   C6        1.0  0.2035948792742106  0.9893893015489551  0.7635316160342835  1.0000
  C   C7        1.0  0.8565981995947718  0.8874394785400348  0.5512357103968131  1.0000
  C   C8        1.0  0.840506193594651  0.3319618235352588  0.5000400053010052  1.0000
  O   O1        1.0  0.0939487548912964  0.4454739172468993  0.4736110998851151  1.0000
  O   O2        1.0  0.27040388773255675  0.8721218588632239  0.6701284550768354  1.0000
  O   O3        1.0  0.02527029142412207  0.833746243394432  0.44828743544950056  1.0000
  O   O4        1.0  0.7134048531827138  0.5302390410802633  0.45494004459282067  1.0000
  O   O5        1.0  0.350155060446467  0.38063183219353247  0.6022865847084519  1.0000
  O   O6        1.0  0.15358395367262334  0.6133824332809387  0.8872165969997872  1.0000
  O   O7        1.0  0.6655471502873752  0.9317869259447755  0.6730662821238134  1.0000
  O   O8        1.0  0.9155759769715978  0.14157509860462847  0.5802190122184061  1.0000
  O   O9        1.0  0.4502033252035711  0.7367195881970009  0.11360082785287705  1.0000
  O   O10       1.0  0.7213506971588468  0.38422625901914015  0.05418769205921671  1.0000
  O   O11       1.0  0.4685999570427593  0.08470442465157857  0.10065885179578338  1.0000
  O   O12       1.0  0.13052678258543216  0.08753195678708074  0.8870029788589817  1.0000
data_image181
_chemical_formula_structural       Mg2C8O12
_chemical_formula_sum              "Mg2 C8 O12"
_cell_length_a       7.872530813609877
_cell_length_b       7.872530813609877
_cell_length_c       7.368803275525341
_cell_angle_alpha    62.34925540174321
_cell_angle_beta     62.34925540174321
_cell_angle_gamma    54.72736521231912

_space_group_name_H-M_alt    "P 1"
_space_group_IT_number       1

loop_
  _space_group_symop_operation_xyz
  'x, y, z'

loop_
  _atom_site_type_symbol
  _atom_site_label
  _atom_site_symmetry_multiplicity
  _atom_site_fract_x
  _atom_site_fract_y
  _atom_site_fract_z
  _atom_site_occupancy
  Mg  Mg1       1.0  0.4246038197724835  0.9012411661358468  0.3089059294443988  1.0000
  Mg  Mg2       1.0  0.3691791767479413  0.057928999419447846  0.8652116713166754  1.0000
  C   C1        1.0  0.4319951161996674  0.43524161706730913  0.22938311025944075  1.0000
  C   C2        1.0  0.4430113453313792  0.3182314395339483  0.11385725223820813  1.0000
  C   C3        1.0  0.5475380564325417  0.5548629371193179  0.12446761213284321  1.0000
  C   C4        1.0  0.34451192601372493  0.3396661083120325  0.9916661324874201  1.0000
  C   C5        1.0  0.27115177763496123  0.394098945326623  0.4363370253241064  1.0000
  C   C6        1.0  0.1810727255323239  0.9371835509070873  0.8091514159048909  1.0000
  C   C7        1.0  0.9670125193830049  0.7941870030859471  0.537624854017994  1.0000
  C   C8        1.0  0.7409924395105247  0.4478510767213364  0.4380923503547356  1.0000
  O   O1        1.0  0.09703957642201955  0.45286689691140974  0.44781653762379364  1.0000
  O   O2        1.0  0.3277757855079697  0.8833655284817187  0.6501258698433734  1.0000
  O   O3        1.0  0.1553696294325213  0.7710591890033515  0.42170406459346776  1.0000
  O   O4        1.0  0.6250473837222053  0.6434765404795455  0.42426545189443376  1.0000
  O   O5        1.0  0.3595027917585482  0.3056680854169159  0.5990273262731609  1.0000
  O   O6        1.0  0.16167653133715856  0.49558391734610796  0.9716606753088655  1.0000
  O   O7        1.0  0.7926968992490143  0.8219259111159156  0.6243776076889478  1.0000
  O   O8        1.0  0.8525499656755814  0.2674925039915923  0.44827845010113254  1.0000
  O   O9        1.0  0.4748834383507361  0.7784818603416874  0.05166862406090167  1.0000
  O   O10       1.0  0.7378467443229001  0.4410598654427841  0.11090599736071124  1.0000
  O   O11       1.0  0.47882231884657883  0.10233642523984435  0.23612618857066422  1.0000
  O   O12       1.0  0.06322468432511386  0.007691736561536792  0.9570503392078673  1.0000
data_image182
_chemical_formula_structural       Mg2C8O12
_chemical_formula_sum              "Mg2 C8 O12"
_cell_length_a       7.872530813609877
_cell_length_b       7.872530813609877
_cell_length_c       7.368803275525341
_cell_angle_alpha    62.34925540174321
_cell_angle_beta     62.34925540174321
_cell_angle_gamma    54.72736521231912

_space_group_name_H-M_alt    "P 1"
_space_group_IT_number       1

loop_
  _space_group_symop_operation_xyz
  'x, y, z'

loop_
  _atom_site_type_symbol
  _atom_site_label
  _atom_site_symmetry_multiplicity
  _atom_site_fract_x
  _atom_site_fract_y
  _atom_site_fract_z
  _atom_site_occupancy
  Mg  Mg1       1.0  0.3321283782260247  0.824774532710417  0.39158874903208857  1.0000
  Mg  Mg2       1.0  0.5532522599160531  0.9438773235581008  0.7681332773124109  1.0000
  C   C1        1.0  0.45068978853569835  0.4060610090284546  0.2321114610102375  1.0000
  C   C2        1.0  0.3784036523973818  0.31335435992205607  0.16778601068800947  1.0000
  C   C3        1.0  0.5562875839710231  0.5459277436668968  0.09012472186526228  1.0000
  C   C4        1.0  0.24070076097327014  0.492493833679395  0.0016283580475963638  1.0000
  C   C5        1.0  0.34449012015437475  0.38727593317581227  0.44936459718851074  1.0000
  C   C6        1.0  0.11180141755802753  0.028433947656982816  0.7925157052998504  1.0000
  C   C7        1.0  0.01225840015860169  0.711299633751384  0.5256109052539233  1.0000
  C   C8        1.0  0.8474611828087262  0.37490718620238983  0.42603717529451024  1.0000
  O   O1        1.0  0.14311496075716812  0.5302445067511987  0.46496254393030606  1.0000
  O   O2        1.0  0.305347788508493  0.9222101269588877  0.699378625679218  1.0000
  O   O3        1.0  0.08025247424265358  0.787145017625037  0.5774144141341488  1.0000
  O   O4        1.0  0.6744745465596972  0.5219885859215356  0.47634278592094303  1.0000
  O   O5        1.0  0.35324535628454007  0.2660709131886188  0.6496998481109137  1.0000
  O   O6        1.0  0.03853307484898392  0.6122471907396148  0.03839852224703388  1.0000
  O   O7        1.0  0.7875228349314757  0.8421466096258633  0.5313092478067902  1.0000
  O   O8        1.0  0.028689723596521135  0.26084285156930465  0.35881463561534366  1.0000
  O   O9        1.0  0.4287414329894046  0.7586532334933891  0.08919843032842334  1.0000
  O   O10       1.0  0.7574588419765318  0.47436061406873464  0.9838662328191589  1.0000
  O   O11       1.0  0.4297545509462015  0.10764203509956394  0.21416879882178216  1.0000
  O   O12       1.0  0.9495256417522266  0.14634673452092692  0.8782991904025899  1.0000
data_image183
_chemical_formula_structural       Mg2C8O12
_chemical_formula_sum              "Mg2 C8 O12"
_cell_length_a       7.872530813609877
_cell_length_b       7.872530813609877
_cell_length_c       7.368803275525341
_cell_angle_alpha    62.34925540174321
_cell_angle_beta     62.34925540174321
_cell_angle_gamma    54.72736521231912

_space_group_name_H-M_alt    "P 1"
_space_group_IT_number       1

loop_
  _space_group_symop_operation_xyz
  'x, y, z'

loop_
  _atom_site_type_symbol
  _atom_site_label
  _atom_site_symmetry_multiplicity
  _atom_site_fract_x
  _atom_site_fract_y
  _atom_site_fract_z
  _atom_site_occupancy
  Mg  Mg1       1.0  0.4536608753976406  0.8363652187849067  0.310377564641996  1.0000
  Mg  Mg2       1.0  0.46265234395894483  0.9335765647694665  0.779279705140876  1.0000
  C   C1        1.0  0.44692019187220916  0.3939814448154772  0.2374861272998869  1.0000
  C   C2        1.0  0.4041664971161046  0.30408271841589646  0.14472098210734313  1.0000
  C   C3        1.0  0.48641530205155536  0.5696453205640523  0.06626697475133335  1.0000
  C   C4        1.0  0.3290723261077663  0.45905435761464225  0.9473913765598967  1.0000
  C   C5        1.0  0.35766127849098195  0.3634817871944497  0.48993429357142604  1.0000
  C   C6        1.0  0.15279605537559204  0.9628117273829476  0.7099523906953211  1.0000
  C   C7        1.0  0.9588056390501521  0.8824956009742886  0.5558300806975767  1.0000
  C   C8        1.0  0.7446723355522806  0.43546029217872007  0.4915229636942149  1.0000
  O   O1        1.0  0.17339305699571606  0.51479952067208  0.549538880872674  1.0000
  O   O2        1.0  0.33988180411254865  0.9173370902189046  0.5983519980659149  1.0000
  O   O3        1.0  0.11872365612159297  0.8780494211335617  0.5515252184958988  1.0000
  O   O4        1.0  0.5573740632593811  0.5119707031646272  0.573727350032905  1.0000
  O   O5        1.0  0.44921140313544144  0.2063149653584294  0.6380762464519956  1.0000
  O   O6        1.0  0.14352695291564488  0.5410168165605421  0.0012669057476212475  1.0000
  O   O7        1.0  0.8070206082855936  0.8437218474123293  0.6554797528808285  1.0000
  O   O8        1.0  0.9266691408635679  0.3509613684671371  0.44502691976073594  1.0000
  O   O9        1.0  0.45349060468928437  0.7425101414072692  0.1251108332855592  1.0000
  O   O10       1.0  0.4910894865147659  0.6051994975159256  0.8933196941448464  1.0000
  O   O11       1.0  0.440522722905052  0.09626572219927035  0.16981520465656258  1.0000
  O   O12       1.0  0.07595877980326682  0.9365568095272812  0.8990515793938785  1.0000
data_image184
_chemical_formula_structural       Mg2C8O12
_chemical_formula_sum              "Mg2 C8 O12"
_cell_length_a       7.872530813609877
_cell_length_b       7.872530813609877
_cell_length_c       7.368803275525341
_cell_angle_alpha    62.34925540174321
_cell_angle_beta     62.34925540174321
_cell_angle_gamma    54.72736521231912

_space_group_name_H-M_alt    "P 1"
_space_group_IT_number       1

loop_
  _space_group_symop_operation_xyz
  'x, y, z'

loop_
  _atom_site_type_symbol
  _atom_site_label
  _atom_site_symmetry_multiplicity
  _atom_site_fract_x
  _atom_site_fract_y
  _atom_site_fract_z
  _atom_site_occupancy
  Mg  Mg1       1.0  0.4243784787239723  0.8288536693307189  0.3326361209473784  1.0000
  Mg  Mg2       1.0  0.5207378331964823  0.9212192862485133  0.8120314959202439  1.0000
  C   C1        1.0  0.4646336253946335  0.37348389689671274  0.2508690482204768  1.0000
  C   C2        1.0  0.46785003386942525  0.2497184853429134  0.1671128720673486  1.0000
  C   C3        1.0  0.439849813625487  0.57705235866429  0.08542464257218325  1.0000
  C   C4        1.0  0.3209136899490682  0.39592146631177977  0.026895126508479437  1.0000
  C   C5        1.0  0.33953007648885114  0.38188017292534826  0.4584322343882899  1.0000
  C   C6        1.0  0.10762670703260913  0.9846573013204819  0.8226901136238809  1.0000
  C   C7        1.0  0.9845445825624496  0.8053865931713071  0.5404455347023656  1.0000
  C   C8        1.0  0.8087954195845033  0.46986469004057785  0.413335221682986  1.0000
  O   O1        1.0  0.15071707607648843  0.6094758125615931  0.46285045198656105  1.0000
  O   O2        1.0  0.26089396188585656  0.00451243586585548  0.6706095986522227  1.0000
  O   O3        1.0  0.09462113065733568  0.8968838867598781  0.48819605061640825  1.0000
  O   O4        1.0  0.6561866901930313  0.6003226863542146  0.5176495017457665  1.0000
  O   O5        1.0  0.41354339386712746  0.24518399891069403  0.6333450505154208  1.0000
  O   O6        1.0  0.23201261424208766  0.37424099294599267  0.9520704590613438  1.0000
  O   O7        1.0  0.8087352409363509  0.7842687943460359  0.6844454814857397  1.0000
  O   O8        1.0  0.9244656814931371  0.34165625364355323  0.31043617597866224  1.0000
  O   O9        1.0  0.5038387588439508  0.6903586963138268  0.11675931595218557  1.0000
  O   O10       1.0  0.40095135145140065  0.6191142341269785  0.9259554194633944  1.0000
  O   O11       1.0  0.494975487096818  0.05579387245958497  0.1954851102995479  1.0000
  O   O12       1.0  0.9526824267167886  0.052328053084351005  0.9678326555526396  1.0000
data_image185
_chemical_formula_structural       Mg2C8O12
_chemical_formula_sum              "Mg2 C8 O12"
_cell_length_a       7.872530813609877
_cell_length_b       7.872530813609877
_cell_length_c       7.368803275525341
_cell_angle_alpha    62.34925540174321
_cell_angle_beta     62.34925540174321
_cell_angle_gamma    54.72736521231912

_space_group_name_H-M_alt    "P 1"
_space_group_IT_number       1

loop_
  _space_group_symop_operation_xyz
  'x, y, z'

loop_
  _atom_site_type_symbol
  _atom_site_label
  _atom_site_symmetry_multiplicity
  _atom_site_fract_x
  _atom_site_fract_y
  _atom_site_fract_z
  _atom_site_occupancy
  Mg  Mg1       1.0  0.3773914722733936  0.8079945196772329  0.39648164871228986  1.0000
  Mg  Mg2       1.0  0.5407251976771502  0.9045306417912671  0.7751218708049498  1.0000
  C   C1        1.0  0.45835368378203917  0.38315939101566077  0.2878397801363422  1.0000
  C   C2        1.0  0.442718942194904  0.27481238665104785  0.1977394853422663  1.0000
  C   C3        1.0  0.48705848906869575  0.5792132294982467  0.08560434536648222  1.0000
  C   C4        1.0  0.4014189259110644  0.403977011387102  0.9706710887253539  1.0000
  C   C5        1.0  0.3948880122695472  0.3444361208934375  0.4861078449445141  1.0000
  C   C6        1.0  0.9914472778559551  0.2352141355897297  0.8436701593158951  1.0000
  C   C7        1.0  0.0511755131451177  0.652206891946225  0.5184533850288144  1.0000
  C   C8        1.0  0.8287449853758032  0.4062956645723774  0.3399267134263493  1.0000
  O   O1        1.0  0.17120472127502295  0.43741361361576503  0.5525391118086946  1.0000
  O   O2        1.0  0.1749719434610708  0.07281531960295373  0.804041339346824  1.0000
  O   O3        1.0  0.12967575329281766  0.7531561140530306  0.5067208043594009  1.0000
  O   O4        1.0  0.749105125842101  0.6029410333297056  0.32078052378379507  1.0000
  O   O5        1.0  0.4872643724584975  0.21352361459261204  0.638740326128511  1.0000
  O   O6        1.0  0.21694990005419693  0.4604398440989279  0.9724578926244651  1.0000
  O   O7        1.0  0.8404489160402323  0.7622431720237861  0.587686660149946  1.0000
  O   O8        1.0  0.9458189538152814  0.23635559593209265  0.3240760532367448  1.0000
  O   O9        1.0  0.5162639469587458  0.7327453230531834  0.10677483088554807  1.0000
  O   O10       1.0  0.4169384782857317  0.6276461188426968  0.933525748151006  1.0000
  O   O11       1.0  0.39580843356038875  0.09347379665269125  0.29014877697160746  1.0000
  O   O12       1.0  0.8003851802156066  0.306811007754995  0.8745721387670453  1.0000
data_image186
_chemical_formula_structural       Mg2C8O12
_chemical_formula_sum              "Mg2 C8 O12"
_cell_length_a       7.872530813609877
_cell_length_b       7.872530813609877
_cell_length_c       7.368803275525341
_cell_angle_alpha    62.34925540174321
_cell_angle_beta     62.34925540174321
_cell_angle_gamma    54.72736521231912

_space_group_name_H-M_alt    "P 1"
_space_group_IT_number       1

loop_
  _space_group_symop_operation_xyz
  'x, y, z'

loop_
  _atom_site_type_symbol
  _atom_site_label
  _atom_site_symmetry_multiplicity
  _atom_site_fract_x
  _atom_site_fract_y
  _atom_site_fract_z
  _atom_site_occupancy
  Mg  Mg1       1.0  0.3463300774987045  0.8716419503844708  0.30473522188667207  1.0000
  Mg  Mg2       1.0  0.5648175001777038  0.8411656696732115  0.6457865892615676  1.0000
  C   C1        1.0  0.4643265233198617  0.37038327784957714  0.2481536639596455  1.0000
  C   C2        1.0  0.3937923252873443  0.28115263878230917  0.19391362233800324  1.0000
  C   C3        1.0  0.4773012720795836  0.5717700555916697  0.09107788997745948  1.0000
  C   C4        1.0  0.27213003399878766  0.4557092744661524  0.047412235787052955  1.0000
  C   C5        1.0  0.41408662828264653  0.29881963519554694  0.47024768123957744  1.0000
  C   C6        1.0  0.04913205220905281  0.19830943781887655  0.9080599855005684  1.0000
  C   C7        1.0  0.06510089961613397  0.6728750995037638  0.529173794664783  1.0000
  C   C8        1.0  0.8657534105023466  0.43134882548647147  0.35130172111575786  1.0000
  O   O1        1.0  0.22732867345949603  0.4467786434032223  0.5868699051403691  1.0000
  O   O2        1.0  0.23171809887406036  0.11547023892833264  0.9040396308889664  1.0000
  O   O3        1.0  0.09842459023356898  0.8190387418901115  0.5133196334433183  1.0000
  O   O4        1.0  0.6839561668846579  0.5771763704299124  0.3722720700544202  1.0000
  O   O5        1.0  0.5264157527950749  0.1175995377294089  0.5736414607820803  1.0000
  O   O6        1.0  0.1199882345650174  0.541269947419866  0.9814635504079819  1.0000
  O   O7        1.0  0.8570202159196743  0.7102021693004811  0.5957011387641253  1.0000
  O   O8        1.0  0.007580434593779525  0.2532532965919505  0.4111564964811052  1.0000
  O   O9        1.0  0.4959408151778375  0.7086578928555713  0.10906033335228212  1.0000
  O   O10       1.0  0.3839935786941237  0.6314493807561259  0.9404908673211577  1.0000
  O   O11       1.0  0.4218725787302157  0.0783989586692561  0.2590209323006547  1.0000
  O   O12       1.0  0.8435402989771479  0.29768848113467655  0.9187108576704067  1.0000
data_image187
_chemical_formula_structural       Mg2C8O12
_chemical_formula_sum              "Mg2 C8 O12"
_cell_length_a       7.872530813609877
_cell_length_b       7.872530813609877
_cell_length_c       7.368803275525341
_cell_angle_alpha    62.34925540174321
_cell_angle_beta     62.34925540174321
_cell_angle_gamma    54.72736521231912

_space_group_name_H-M_alt    "P 1"
_space_group_IT_number       1

loop_
  _space_group_symop_operation_xyz
  'x, y, z'

loop_
  _atom_site_type_symbol
  _atom_site_label
  _atom_site_symmetry_multiplicity
  _atom_site_fract_x
  _atom_site_fract_y
  _atom_site_fract_z
  _atom_site_occupancy
  Mg  Mg1       1.0  0.33938852837532635  0.9400547603130938  0.22270231534465962  1.0000
  Mg  Mg2       1.0  0.6290567463370068  0.899292364883495  0.6186962721087932  1.0000
  C   C1        1.0  0.42764609473193765  0.4041378880863342  0.24856941807038807  1.0000
  C   C2        1.0  0.4443390917185455  0.2573693068161213  0.18005757449789536  1.0000
  C   C3        1.0  0.45030460026786934  0.600248035890621  0.044995184782407785  1.0000
  C   C4        1.0  0.3788576014355763  0.36329194704543427  0.9619447540779231  1.0000
  C   C5        1.0  0.333075522263096  0.3616774121074464  0.4952710118293076  1.0000
  C   C6        1.0  0.972769049681794  0.13448556590927585  0.9700909111862202  1.0000
  C   C7        1.0  0.09377175499324797  0.7154652679000931  0.517257673679878  1.0000
  C   C8        1.0  0.8187734778188338  0.38651978139999077  0.5291638185586518  1.0000
  O   O1        1.0  0.10851423696173701  0.5104457434745351  0.5664456506148392  1.0000
  O   O2        1.0  0.05006525990548916  0.12166973935664016  0.09786901237057644  1.0000
  O   O3        1.0  0.24198600416051996  0.7381065012596008  0.3794665098657328  1.0000
  O   O4        1.0  0.6346748901967313  0.5627609244742702  0.5216447820591907  1.0000
  O   O5        1.0  0.4069691626513815  0.1860773707614661  0.6389046489176103  1.0000
  O   O6        1.0  0.25477756932139695  0.3999254125137618  0.8888945488887172  1.0000
  O   O7        1.0  0.9086130567106604  0.8512155750564921  0.5865768316615132  1.0000
  O   O8        1.0  0.9743357981572984  0.22301825254715135  0.5116783057835215  1.0000
  O   O9        1.0  0.5661443629768044  0.6744731775324928  0.00035372634799916134  1.0000
  O   O10       1.0  0.39457819106489794  0.6212095029627391  0.8914517192639523  1.0000
  O   O11       1.0  0.5143352512669049  0.04678350825399959  0.2500717763365684  1.0000
  O   O12       1.0  0.8191072885149397  0.21379803758522983  0.9164092140902499  1.0000
data_image188
_chemical_formula_structural       Mg2C8O12
_chemical_formula_sum              "Mg2 C8 O12"
_cell_length_a       7.872530813609877
_cell_length_b       7.872530813609877
_cell_length_c       7.368803275525341
_cell_angle_alpha    62.34925540174321
_cell_angle_beta     62.34925540174321
_cell_angle_gamma    54.72736521231912

_space_group_name_H-M_alt    "P 1"
_space_group_IT_number       1

loop_
  _space_group_symop_operation_xyz
  'x, y, z'

loop_
  _atom_site_type_symbol
  _atom_site_label
  _atom_site_symmetry_multiplicity
  _atom_site_fract_x
  _atom_site_fract_y
  _atom_site_fract_z
  _atom_site_occupancy
  Mg  Mg1       1.0  0.2577250905492034  0.004976187049972047  0.18615051427716856  1.0000
  Mg  Mg2       1.0  0.5916962731387254  0.8684037970604006  0.6314241632527733  1.0000
  C   C1        1.0  0.49886265750433795  0.4275118329236559  0.2175286392498405  1.0000
  C   C2        1.0  0.48089826651993384  0.24923933213240382  0.1989876276967364  1.0000
  C   C3        1.0  0.43162289727081504  0.6092605480372474  0.06317676537546926  1.0000
  C   C4        1.0  0.393886541822185  0.34491361344220733  0.03915710090043715  1.0000
  C   C5        1.0  0.425698247115735  0.3565776020677318  0.4630705661517413  1.0000
  C   C6        1.0  0.8694453606826216  0.1797980935478305  0.034364286318602666  1.0000
  C   C7        1.0  0.08071547873279528  0.7236151498936734  0.5054560907186594  1.0000
  C   C8        1.0  0.9215689118650522  0.33343794564082874  0.4469325296401758  1.0000
  O   O1        1.0  0.16931128428141995  0.5374720788030999  0.4940727136817525  1.0000
  O   O2        1.0  0.9167979747531709  0.29000890219772013  0.060921818348387835  1.0000
  O   O3        1.0  0.22676087734546946  0.7980389986951484  0.3899708618615827  1.0000
  O   O4        1.0  0.757865146069088  0.5005071617127528  0.45171792457842064  1.0000
  O   O5        1.0  0.4755034008749792  0.1757147068065474  0.6140570801185855  1.0000
  O   O6        1.0  0.26779890820510466  0.3024622293983532  0.02187291726929092  1.0000
  O   O7        1.0  0.8691956402216341  0.8147132297067702  0.5386266597835232  1.0000
  O   O8        1.0  0.056943410472978566  0.16191168400366562  0.4528350640935217  1.0000
  O   O9        1.0  0.39456695619671156  0.7997803713305182  0.018734071087579848  1.0000
  O   O10       1.0  0.37013334804171977  0.5927183157656605  0.9323666727706119  1.0000
  O   O11       1.0  0.5252528802078964  0.06538048172853773  0.32198193318307405  1.0000
  O   O12       1.0  0.8874020676345928  0.057865894240253755  0.9733103464908905  1.0000
data_image189
_chemical_formula_structural       Mg2C8O12
_chemical_formula_sum              "Mg2 C8 O12"
_cell_length_a       7.872530813609877
_cell_length_b       7.872530813609877
_cell_length_c       7.368803275525341
_cell_angle_alpha    62.34925540174321
_cell_angle_beta     62.34925540174321
_cell_angle_gamma    54.72736521231912

_space_group_name_H-M_alt    "P 1"
_space_group_IT_number       1

loop_
  _space_group_symop_operation_xyz
  'x, y, z'

loop_
  _atom_site_type_symbol
  _atom_site_label
  _atom_site_symmetry_multiplicity
  _atom_site_fract_x
  _atom_site_fract_y
  _atom_site_fract_z
  _atom_site_occupancy
  Mg  Mg1       1.0  0.18522770530362428  0.11769621598567281  0.09607078685542216  1.0000
  Mg  Mg2       1.0  0.628183774708273  0.8739625998198342  0.5985696514503647  1.0000
  C   C1        1.0  0.5207355483706697  0.3973351297379403  0.2509695271211831  1.0000
  C   C2        1.0  0.5619974399907869  0.2269482125995085  0.16343206961095247  1.0000
  C   C3        1.0  0.40254417175509905  0.5956783669921006  0.10793920644957958  1.0000
  C   C4        1.0  0.413800433878366  0.3649436361307855  0.005269121409218783  1.0000
  C   C5        1.0  0.4081260354337073  0.3390686626443915  0.46385434322305397  1.0000
  C   C6        1.0  0.8405787636641171  0.16528029623369034  0.011001838925502216  1.0000
  C   C7        1.0  0.021395964195662698  0.7129723046735255  0.5803128947105507  1.0000
  C   C8        1.0  0.9162331979861186  0.3621572780623028  0.4432883168615598  1.0000
  O   O1        1.0  0.17441627026095796  0.4721902757754492  0.5249360580406547  1.0000
  O   O2        1.0  0.9442696858205246  0.16039306784382035  0.09671345492886729  1.0000
  O   O3        1.0  0.0869989413933856  0.835331596187259  0.5296295876878283  1.0000
  O   O4        1.0  0.7853988166929939  0.5319814704282417  0.4860485407851314  1.0000
  O   O5        1.0  0.5148250918560526  0.21095847906803494  0.5874231947837963  1.0000
  O   O6        1.0  0.3597018840528367  0.33312203367626086  0.8913141819119808  1.0000
  O   O7        1.0  0.8439394246047278  0.6807094916821942  0.7558254827279556  1.0000
  O   O8        1.0  0.05380248260957489  0.22799199789005442  0.37194616591290264  1.0000
  O   O9        1.0  0.3713519538195993  0.7763318728825944  0.09079829154184378  1.0000
  O   O10       1.0  0.4018212270396476  0.585678225792513  0.9312536576716401  1.0000
  O   O11       1.0  0.5874661020859265  0.019272668545185997  0.29245421425952983  1.0000
  O   O12       1.0  0.8618341204392872  0.13067658345597938  0.8550199284082511  1.0000
data_image190
_chemical_formula_structural       Mg2C8O12
_chemical_formula_sum              "Mg2 C8 O12"
_cell_length_a       7.872530813609877
_cell_length_b       7.872530813609877
_cell_length_c       7.368803275525341
_cell_angle_alpha    62.34925540174321
_cell_angle_beta     62.34925540174321
_cell_angle_gamma    54.72736521231912

_space_group_name_H-M_alt    "P 1"
_space_group_IT_number       1

loop_
  _space_group_symop_operation_xyz
  'x, y, z'

loop_
  _atom_site_type_symbol
  _atom_site_label
  _atom_site_symmetry_multiplicity
  _atom_site_fract_x
  _atom_site_fract_y
  _atom_site_fract_z
  _atom_site_occupancy
  Mg  Mg1       1.0  0.1366428989729316  0.3029128589582414  0.9185254801893101  1.0000
  Mg  Mg2       1.0  0.6517195790725614  0.8940388769109511  0.7175932136685831  1.0000
  C   C1        1.0  0.4550819432266827  0.4973966770371454  0.27107352851571576  1.0000
  C   C2        1.0  0.4481655720211427  0.34805960830441524  0.20966539354978905  1.0000
  C   C3        1.0  0.4548921537523303  0.6890634445735088  0.14610634819576845  1.0000
  C   C4        1.0  0.4360496558687716  0.37067569079955565  0.9752903792280182  1.0000
  C   C5        1.0  0.3866960524827393  0.4009938131684442  0.5096093940095895  1.0000
  C   C6        1.0  0.9955452167695773  0.9644385456611613  0.9779803506809173  1.0000
  C   C7        1.0  0.012893530008365683  0.641126705666879  0.6316924299392015  1.0000
  C   C8        1.0  0.9221841170642732  0.3693571317918163  0.3871833010037131  1.0000
  O   O1        1.0  0.14773433901744726  0.4655513277006865  0.5780703584428667  1.0000
  O   O2        1.0  0.01895213880515545  0.05856959346719637  0.04887054781284683  1.0000
  O   O3        1.0  0.9423138861096885  0.7999566677027888  0.47501296238047397  1.0000
  O   O4        1.0  0.9280680203677756  0.41714272033722843  0.5027604542571196  1.0000
  O   O5        1.0  0.4947896021383987  0.22778563194935428  0.6048383977130771  1.0000
  O   O6        1.0  0.3372953138897963  0.2688260434695172  0.9796882974118004  1.0000
  O   O7        1.0  0.9145030290898939  0.5973070156162188  0.8612363946816741  1.0000
  O   O8        1.0  0.9091611967115614  0.31413739690048503  0.27573067762297665  1.0000
  O   O9        1.0  0.47259209821372905  0.8184477786876223  0.9830328985072642  1.0000
  O   O10       1.0  0.4758191057804609  0.5113283874356623  0.8384307748763479  1.0000
  O   O11       1.0  0.48901944480171955  0.1642232893386545  0.3164048693603645  1.0000
  O   O12       1.0  0.876546186607913  0.921610245673478  0.975934761606938  1.0000
data_image191
_chemical_formula_structural       Mg2C8O12
_chemical_formula_sum              "Mg2 C8 O12"
_cell_length_a       7.872530813609877
_cell_length_b       7.872530813609877
_cell_length_c       7.368803275525341
_cell_angle_alpha    62.34925540174321
_cell_angle_beta     62.34925540174321
_cell_angle_gamma    54.72736521231912

_space_group_name_H-M_alt    "P 1"
_space_group_IT_number       1

loop_
  _space_group_symop_operation_xyz
  'x, y, z'

loop_
  _atom_site_type_symbol
  _atom_site_label
  _atom_site_symmetry_multiplicity
  _atom_site_fract_x
  _atom_site_fract_y
  _atom_site_fract_z
  _atom_site_occupancy
  Mg  Mg1       1.0  0.07824909220386893  0.30081984516724625  0.9699047377799173  1.0000
  Mg  Mg2       1.0  0.599158818733415  0.986880041202171  0.8488528999886531  1.0000
  C   C1        1.0  0.4180877245032043  0.44334108138035666  0.31272452078153207  1.0000
  C   C2        1.0  0.4637922574448984  0.2673207009262203  0.23842961242929822  1.0000
  C   C3        1.0  0.43171422087168904  0.6043469613638821  0.17810128658133725  1.0000
  C   C4        1.0  0.3533603640014812  0.3931108751101822  0.03826003824960614  1.0000
  C   C5        1.0  0.45640984832356724  0.3280270486640347  0.5356541850807701  1.0000
  C   C6        1.0  0.000572156136632973  0.05596352410595751  0.9330638137169445  1.0000
  C   C7        1.0  0.8898216382547347  0.7692626965529261  0.5321787112945071  1.0000
  C   C8        1.0  0.9996227159291178  0.3186900308240761  0.3117589359319404  1.0000
  O   O1        1.0  0.2793916271813407  0.28723180285289  0.7002731896089107  1.0000
  O   O2        1.0  0.9602656159204315  0.2285933034647054  0.8278106705777759  1.0000
  O   O3        1.0  0.9455534312251341  0.6696176906660385  0.41141146561047304  1.0000
  O   O4        1.0  0.9708988846708753  0.3182508472921344  0.49237520492998477  1.0000
  O   O5        1.0  0.6166166339237688  0.24561854373922962  0.5848663879365179  1.0000
  O   O6        1.0  0.14481728199621668  0.42384611670082756  0.08656154153133831  1.0000
  O   O7        1.0  0.8955925568103  0.8126565672414414  0.667403408657983  1.0000
  O   O8        1.0  0.8756265636027736  0.340646157772758  0.2243294004165799  1.0000
  O   O9        1.0  0.47921878112474303  0.7646938753905886  0.08219003611159847  1.0000
  O   O10       1.0  0.4634770212745258  0.46452418844250365  0.8887321340680903  1.0000
  O   O11       1.0  0.5523000425286853  0.07189016189936343  0.25601505815005265  1.0000
  O   O12       1.0  0.06426062464546334  0.8751754972637895  0.9622498816467859  1.0000
data_image192
_chemical_formula_structural       Mg2C8O12
_chemical_formula_sum              "Mg2 C8 O12"
_cell_length_a       7.872530813609877
_cell_length_b       7.872530813609877
_cell_length_c       7.368803275525341
_cell_angle_alpha    62.34925540174321
_cell_angle_beta     62.34925540174321
_cell_angle_gamma    54.72736521231912

_space_group_name_H-M_alt    "P 1"
_space_group_IT_number       1

loop_
  _space_group_symop_operation_xyz
  'x, y, z'

loop_
  _atom_site_type_symbol
  _atom_site_label
  _atom_site_symmetry_multiplicity
  _atom_site_fract_x
  _atom_site_fract_y
  _atom_site_fract_z
  _atom_site_occupancy
  Mg  Mg1       1.0  0.04092765088152279  0.40153110758332866  0.9403756754346793  1.0000
  Mg  Mg2       1.0  0.6648350745110829  0.036287335508167096  0.8354655606089062  1.0000
  C   C1        1.0  0.41696063620917556  0.4262009538155374  0.3253599122982006  1.0000
  C   C2        1.0  0.4014737432410921  0.3403576776870497  0.20756820198782214  1.0000
  C   C3        1.0  0.43513588479015697  0.6036760448435504  0.2445301920121429  1.0000
  C   C4        1.0  0.34507451263787253  0.4286149758809548  0.0021684793926972407  1.0000
  C   C5        1.0  0.4843783652583584  0.2539467200869272  0.5592583879315987  1.0000
  C   C6        1.0  0.07059465116948704  0.0655687895953263  0.852456781890552  1.0000
  C   C7        1.0  0.8477961753703943  0.8102751712827457  0.5763892532169292  1.0000
  C   C8        1.0  0.9286501355710286  0.22283563726309175  0.3696792763952117  1.0000
  O   O1        1.0  0.3380303006507662  0.19663003151402356  0.7471041614119963  1.0000
  O   O2        1.0  0.9388158669563484  0.23089884761777446  0.8962435413992695  1.0000
  O   O3        1.0  0.9188424958573819  0.8583599755947355  0.3941153888015301  1.0000
  O   O4        1.0  0.01582256884653138  0.12992614983923545  0.5101724329625281  1.0000
  O   O5        1.0  0.6808305555550301  0.15837755807638315  0.5238056926295404  1.0000
  O   O6        1.0  0.15782924018624123  0.5531364165251773  0.9880034615837987  1.0000
  O   O7        1.0  0.7966381907346712  0.7041851159643572  0.8046126876526225  1.0000
  O   O8        1.0  0.8744203942023828  0.3124428085707134  0.21319580796895754  1.0000
  O   O9        1.0  0.4440913793228758  0.7501683846837368  0.2460670660451638  1.0000
  O   O10       1.0  0.5054477142393552  0.380279641160865  0.8169445136537731  1.0000
  O   O11       1.0  0.5127225120133602  0.11471341430734862  0.20564007614923308  1.0000
  O   O12       1.0  0.08298010688235369  0.908381914353439  0.8599722025392743  1.0000
data_image193
_chemical_formula_structural       Mg2C8O12
_chemical_formula_sum              "Mg2 C8 O12"
_cell_length_a       7.872530813609877
_cell_length_b       7.872530813609877
_cell_length_c       7.368803275525341
_cell_angle_alpha    62.34925540174321
_cell_angle_beta     62.34925540174321
_cell_angle_gamma    54.72736521231912

_space_group_name_H-M_alt    "P 1"
_space_group_IT_number       1

loop_
  _space_group_symop_operation_xyz
  'x, y, z'

loop_
  _atom_site_type_symbol
  _atom_site_label
  _atom_site_symmetry_multiplicity
  _atom_site_fract_x
  _atom_site_fract_y
  _atom_site_fract_z
  _atom_site_occupancy
  Mg  Mg1       1.0  0.06369449246723372  0.44916298153262535  0.8554697284147538  1.0000
  Mg  Mg2       1.0  0.6361277548476332  0.06968840126315468  0.8728706747718706  1.0000
  C   C1        1.0  0.4597020272612994  0.3576716331011413  0.3313451131105665  1.0000
  C   C2        1.0  0.4657401793257901  0.3020347048448654  0.14971571061019878  1.0000
  C   C3        1.0  0.36630441135560715  0.5737110705468553  0.2666714584386231  1.0000
  C   C4        1.0  0.41413495908664383  0.41085543990259615  0.9459354541852778  1.0000
  C   C5        1.0  0.5201143558866015  0.22681033943932144  0.51215977840821  1.0000
  C   C6        1.0  0.024365866009335768  0.06162833225385045  0.8894683889104984  1.0000
  C   C7        1.0  0.7302746211373872  0.8484504613362537  0.6210159112247711  1.0000
  C   C8        1.0  0.9916538145312439  0.2507396695044284  0.3469634998194142  1.0000
  O   O1        1.0  0.3901113826551864  0.24790567970137273  0.6926844322844096  1.0000
  O   O2        1.0  0.019834302606367427  0.243856830058911  0.8306684562950009  1.0000
  O   O3        1.0  0.8552791294713008  0.7212981924119023  0.5311275706518657  1.0000
  O   O4        1.0  0.008643053634338557  0.09489042840327278  0.4915280126029622  1.0000
  O   O5        1.0  0.7095100701526507  0.0803666150336882  0.4896178526245032  1.0000
  O   O6        1.0  0.21185536105164698  0.5573186984604188  0.9014916466106326  1.0000
  O   O7        1.0  0.669027547466944  0.8048375363110492  0.8317533325545146  1.0000
  O   O8        1.0  0.9078634948580367  0.4134601061286851  0.20302164549916824  1.0000
  O   O9        1.0  0.3169799696817919  0.7164811708424149  0.324075850616165  1.0000
  O   O10       1.0  0.5821808094278312  0.3925623205654368  0.8239464884346024  1.0000
  O   O11       1.0  0.5308060626645446  0.1015805237896306  0.18661266982834246  1.0000
  O   O12       1.0  0.04172024698253418  0.8899907302390082  0.02811157482141022  1.0000
data_image194
_chemical_formula_structural       Mg2C8O12
_chemical_formula_sum              "Mg2 C8 O12"
_cell_length_a       7.872530813609877
_cell_length_b       7.872530813609877
_cell_length_c       7.368803275525341
_cell_angle_alpha    62.34925540174321
_cell_angle_beta     62.34925540174321
_cell_angle_gamma    54.72736521231912

_space_group_name_H-M_alt    "P 1"
_space_group_IT_number       1

loop_
  _space_group_symop_operation_xyz
  'x, y, z'

loop_
  _atom_site_type_symbol
  _atom_site_label
  _atom_site_symmetry_multiplicity
  _atom_site_fract_x
  _atom_site_fract_y
  _atom_site_fract_z
  _atom_site_occupancy
  Mg  Mg1       1.0  0.19311363540305357  0.4745166910287345  0.7396810597932101  1.0000
  Mg  Mg2       1.0  0.7183595788379897  0.09470225028280244  0.8094172887954134  1.0000
  C   C1        1.0  0.404329604014535  0.30197150731052314  0.36192065343800267  1.0000
  C   C2        1.0  0.4298841386172585  0.2833374627674774  0.15978136017254188  1.0000
  C   C3        1.0  0.3067303396399859  0.5290755816209144  0.36541546697433647  1.0000
  C   C4        1.0  0.3645311416002741  0.4577360355543461  0.9649009581305553  1.0000
  C   C5        1.0  0.5773550607071545  0.1289320532611119  0.5117627921130612  1.0000
  C   C6        1.0  0.9229356558466639  0.12267425913931129  0.00637462068945549  1.0000
  C   C7        1.0  0.8205944376129863  0.7100257578098494  0.6539968941220635  1.0000
  C   C8        1.0  0.8423946019953117  0.3750273834122819  0.371078902096027  1.0000
  O   O1        1.0  0.44516455271805944  0.18300916509390486  0.7030802783385938  1.0000
  O   O2        1.0  0.998125835558856  0.2505820373625198  0.8487508071307268  1.0000
  O   O3        1.0  0.8760396780582274  0.6251754992813277  0.522983860883846  1.0000
  O   O4        1.0  0.947980433532603  0.22989463832407764  0.5079098746028758  1.0000
  O   O5        1.0  0.7752678164760775  0.9876879331078636  0.47047329113897557  1.0000
  O   O6        1.0  0.15446135640703884  0.5902993681488358  0.9825793475925508  1.0000
  O   O7        1.0  0.7863148347085855  0.7372554073850558  0.8255980417345992  1.0000
  O   O8        1.0  0.8606941911429669  0.4535148812494354  0.1752635807706815  1.0000
  O   O9        1.0  0.36277397950805623  0.6631023123434382  0.25748617618341246  1.0000
  O   O10       1.0  0.5221758874389042  0.5018797480439369  0.8158505896741814  1.0000
  O   O11       1.0  0.5245418369475384  0.0932912445906017  0.10980744828016095  1.0000
  O   O12       1.0  0.8982047588508362  0.9636570909787986  0.1376000821585121  1.0000
data_image195
_chemical_formula_structural       Mg2C8O12
_chemical_formula_sum              "Mg2 C8 O12"
_cell_length_a       7.872530813609877
_cell_length_b       7.872530813609877
_cell_length_c       7.368803275525341
_cell_angle_alpha    62.34925540174321
_cell_angle_beta     62.34925540174321
_cell_angle_gamma    54.72736521231912

_space_group_name_H-M_alt    "P 1"
_space_group_IT_number       1

loop_
  _space_group_symop_operation_xyz
  'x, y, z'

loop_
  _atom_site_type_symbol
  _atom_site_label
  _atom_site_symmetry_multiplicity
  _atom_site_fract_x
  _atom_site_fract_y
  _atom_site_fract_z
  _atom_site_occupancy
  Mg  Mg1       1.0  0.12202395885684868  0.46932021492178777  0.8019755663035332  1.0000
  Mg  Mg2       1.0  0.6767373138015802  0.02308409876676687  0.8876714483542807  1.0000
  C   C1        1.0  0.4181189372399359  0.29702668717113545  0.30984216182610386  1.0000
  C   C2        1.0  0.43020752452356764  0.24832926618000545  0.15418915211890274  1.0000
  C   C3        1.0  0.4104446594858271  0.48030317858020666  0.3112245954966275  1.0000
  C   C4        1.0  0.4180336572500668  0.4588675546113891  0.9296743630322813  1.0000
  C   C5        1.0  0.5720329121275025  0.1616586574326963  0.4553936568849003  1.0000
  C   C6        1.0  0.9740330176843761  0.16054557949592696  0.9056863295359674  1.0000
  C   C7        1.0  0.8800424146960238  0.7336142487974289  0.5708689616829297  1.0000
  C   C8        1.0  0.7759446119714009  0.4095285940032942  0.41232116521953377  1.0000
  O   O1        1.0  0.4940266349204546  0.15309577169801522  0.6459583094284251  1.0000
  O   O2        1.0  0.021965633238415716  0.22784836242184636  0.9875755808997217  1.0000
  O   O3        1.0  0.054850759539570415  0.5834962368026007  0.519894081146296  1.0000
  O   O4        1.0  0.7741180002697037  0.2937238331861165  0.5892827295209788  1.0000
  O   O5        1.0  0.7506639483720481  0.008851249743923218  0.37813026073743927  1.0000
  O   O6        1.0  0.26325936678696055  0.5559025993128612  0.8532716991025826  1.0000
  O   O7        1.0  0.8173946759053443  0.7726583442650509  0.769524458012909  1.0000
  O   O8        1.0  0.7258209729029977  0.5487495893573624  0.25578965496221806  1.0000
  O   O9        1.0  0.3786926756464766  0.5652981243463492  0.41833468976423366  1.0000
  O   O10       1.0  0.5280923553207788  0.5152190737999092  0.9403780836899313  1.0000
  O   O11       1.0  0.4301262268714379  0.10046314553698854  0.12630911202299236  1.0000
  O   O12       1.0  0.9237116430886407  0.04117113248887223  0.919280931766852  1.0000
data_image196
_chemical_formula_structural       Mg2C8O12
_chemical_formula_sum              "Mg2 C8 O12"
_cell_length_a       7.872530813609877
_cell_length_b       7.872530813609877
_cell_length_c       7.368803275525341
_cell_angle_alpha    62.34925540174321
_cell_angle_beta     62.34925540174321
_cell_angle_gamma    54.72736521231912

_space_group_name_H-M_alt    "P 1"
_space_group_IT_number       1

loop_
  _space_group_symop_operation_xyz
  'x, y, z'

loop_
  _atom_site_type_symbol
  _atom_site_label
  _atom_site_symmetry_multiplicity
  _atom_site_fract_x
  _atom_site_fract_y
  _atom_site_fract_z
  _atom_site_occupancy
  Mg  Mg1       1.0  0.18470249151394252  0.39431590756516377  0.8202451609633844  1.0000
  Mg  Mg2       1.0  0.7445813697970796  0.07482482327782591  0.7768742161231252  1.0000
  C   C1        1.0  0.4541177594452349  0.30289672216831054  0.3103499590169572  1.0000
  C   C2        1.0  0.4567117215236594  0.28558241856316274  0.10810242034734444  1.0000
  C   C3        1.0  0.35415805285138563  0.48737448859826116  0.3580308601105133  1.0000
  C   C4        1.0  0.43302498181606486  0.512265873982876  0.9090224290433437  1.0000
  C   C5        1.0  0.47290990199418126  0.12677030085993676  0.5090543517882494  1.0000
  C   C6        1.0  0.9142764042618066  0.13540437245018278  0.02869165544041885  1.0000
  C   C7        1.0  0.8380003600972205  0.7414888433548368  0.6078705741109465  1.0000
  C   C8        1.0  0.8291158466364615  0.4225487691176839  0.39079871378768316  1.0000
  O   O1        1.0  0.36824630964500016  0.1305233093277574  0.6835848428200862  1.0000
  O   O2        1.0  0.03251478489205484  0.17052195572953455  0.039251647180115645  1.0000
  O   O3        1.0  0.9315088274647187  0.5460940946989937  0.6474059786244049  1.0000
  O   O4        1.0  0.7813174522738136  0.28115835106689313  0.49600501776131467  1.0000
  O   O5        1.0  0.6741952395783035  0.8977436717142501  0.49015145439978075  1.0000
  O   O6        1.0  0.3869761404005505  0.5089683747325267  0.7623674998952843  1.0000
  O   O7        1.0  0.8547139254866836  0.8147012974228476  0.7080873991791796  1.0000
  O   O8        1.0  0.938937451184529  0.5025980975719193  0.2703714616434003  1.0000
  O   O9        1.0  0.3309242299093589  0.6651865349177966  0.334173782926567  1.0000
  O   O10       1.0  0.4166487053767874  0.6944590201330592  0.8909641746231656  1.0000
  O   O11       1.0  0.451805119456168  0.1435586198108569  0.06403167249869801  1.0000
  O   O12       1.0  0.8918847660606903  0.995891145857901  0.02793296433262486  1.0000
data_image197
_chemical_formula_structural       Mg2C8O12
_chemical_formula_sum              "Mg2 C8 O12"
_cell_length_a       7.872530813609877
_cell_length_b       7.872530813609877
_cell_length_c       7.368803275525341
_cell_angle_alpha    62.34925540174321
_cell_angle_beta     62.34925540174321
_cell_angle_gamma    54.72736521231912

_space_group_name_H-M_alt    "P 1"
_space_group_IT_number       1

loop_
  _space_group_symop_operation_xyz
  'x, y, z'

loop_
  _atom_site_type_symbol
  _atom_site_label
  _atom_site_symmetry_multiplicity
  _atom_site_fract_x
  _atom_site_fract_y
  _atom_site_fract_z
  _atom_site_occupancy
  Mg  Mg1       1.0  0.07870126867982435  0.4529604829336612  0.7610682207214755  1.0000
  Mg  Mg2       1.0  0.7181058336600636  0.09329943196685786  0.8498441914312772  1.0000
  C   C1        1.0  0.3814580111934944  0.31311141844614515  0.2969410569860559  1.0000
  C   C2        1.0  0.4338786364888447  0.23443411229757227  0.1182569496662939  1.0000
  C   C3        1.0  0.398697437766193  0.4838034898414502  0.22733092306986366  1.0000
  C   C4        1.0  0.3583020191017615  0.4326896949443981  0.9192178318153188  1.0000
  C   C5        1.0  0.4823415761075982  0.15388741773803608  0.46794950017905107  1.0000
  C   C6        1.0  0.03964411786486188  0.12689468732133036  0.03808397590609991  1.0000
  C   C7        1.0  0.7941235406657834  0.8111350234993137  0.6164576767002843  1.0000
  C   C8        1.0  0.8735967419825339  0.3392204410901294  0.43543141595290624  1.0000
  O   O1        1.0  0.3674423905038523  0.24669985783265141  0.6330985157833093  1.0000
  O   O2        1.0  0.171335538793425  0.05453991780043754  0.13450976567523065  1.0000
  O   O3        1.0  0.8544608372212468  0.6420003724321767  0.612473012716104  1.0000
  O   O4        1.0  0.7292943615422542  0.2844041996392954  0.5784187708203992  1.0000
  O   O5        1.0  0.6904369932542732  0.006274827045755021  0.45067923426397777  1.0000
  O   O6        1.0  0.22587762488303903  0.5601632126277403  0.8076340407149057  1.0000
  O   O7        1.0  0.8463258880498812  0.8693433862224731  0.7116747126709955  1.0000
  O   O8        1.0  0.9689633524069285  0.43689623828998014  0.30075381916202426  1.0000
  O   O9        1.0  0.37545037031156947  0.6131147638254127  0.27442626361555866  1.0000
  O   O10       1.0  0.49915400003362054  0.49183292512372123  0.8835503153349691  1.0000
  O   O11       1.0  0.5395930923740515  0.041640218281005476  0.13613972103949729  1.0000
  O   O12       1.0  0.9869773784319968  0.0750893788126902  0.9457137164858679  1.0000
data_image198
_chemical_formula_structural       Mg2C8O12
_chemical_formula_sum              "Mg2 C8 O12"
_cell_length_a       7.872530813609877
_cell_length_b       7.872530813609877
_cell_length_c       7.368803275525341
_cell_angle_alpha    62.34925540174321
_cell_angle_beta     62.34925540174321
_cell_angle_gamma    54.72736521231912

_space_group_name_H-M_alt    "P 1"
_space_group_IT_number       1

loop_
  _space_group_symop_operation_xyz
  'x, y, z'

loop_
  _atom_site_type_symbol
  _atom_site_label
  _atom_site_symmetry_multiplicity
  _atom_site_fract_x
  _atom_site_fract_y
  _atom_site_fract_z
  _atom_site_occupancy
  Mg  Mg1       1.0  0.14589198862268063  0.5135762566781119  0.6982696380504048  1.0000
  Mg  Mg2       1.0  0.678779283223505  0.0007015199626709823  0.9391147339446786  1.0000
  C   C1        1.0  0.43060521423355863  0.3638170205339862  0.32569806182359967  1.0000
  C   C2        1.0  0.3937117224429873  0.2950983249496172  0.17682053613258628  1.0000
  C   C3        1.0  0.4508337289896248  0.5361947955612629  0.24369043041838778  1.0000
  C   C4        1.0  0.3661306409574185  0.4727741691233026  0.9480102681531303  1.0000
  C   C5        1.0  0.5255438712615217  0.15679588908483827  0.5030914796717185  1.0000
  C   C6        1.0  0.9359302998250971  0.11594914854206095  0.9660205163472328  1.0000
  C   C7        1.0  0.8449362186425622  0.8011671814741413  0.5677424150949668  1.0000
  C   C8        1.0  0.8849580631508799  0.24078361169076423  0.5001602850877169  1.0000
  O   O1        1.0  0.3759602844654095  0.1812408084293758  0.6824038561975948  1.0000
  O   O2        1.0  0.011810439668446193  0.11209757656108343  0.08926240056031665  1.0000
  O   O3        1.0  0.005660527593172926  0.6597831298660822  0.4664171861045536  1.0000
  O   O4        1.0  0.7129105539820324  0.25497934781985165  0.5760514428335077  1.0000
  O   O5        1.0  0.6933700633883737  0.9688247748829659  0.45822030158892524  1.0000
  O   O6        1.0  0.16623012772702397  0.5537993984046984  0.930332433946706  1.0000
  O   O7        1.0  0.8311119879275605  0.8085099581825882  0.7417153209979626  1.0000
  O   O8        1.0  0.00031836676037187337  0.3168482615819239  0.4462896790612956  1.0000
  O   O9        1.0  0.5462886605614867  0.6488021265332514  0.133525200734228  1.0000
  O   O10       1.0  0.472836648993005  0.5792613505593155  0.7832355010716249  1.0000
  O   O11       1.0  0.48715339278850267  0.09298178502522358  0.18309788436699467  1.0000
  O   O12       1.0  0.8563073263790539  0.12807583059481178  0.8540700737752613  1.0000
data_image199
_chemical_formula_structural       Mg2C8O12
_chemical_formula_sum              "Mg2 C8 O12"
_cell_length_a       7.872530813609877
_cell_length_b       7.872530813609877
_cell_length_c       7.368803275525341
_cell_angle_alpha    62.34925540174321
_cell_angle_beta     62.34925540174321
_cell_angle_gamma    54.72736521231912

_space_group_name_H-M_alt    "P 1"
_space_group_IT_number       1

loop_
  _space_group_symop_operation_xyz
  'x, y, z'

loop_
  _atom_site_type_symbol
  _atom_site_label
  _atom_site_symmetry_multiplicity
  _atom_site_fract_x
  _atom_site_fract_y
  _atom_site_fract_z
  _atom_site_occupancy
  Mg  Mg1       1.0  0.32265807551853204  0.5789287053261354  0.6005913574821655  1.0000
  Mg  Mg2       1.0  0.5029488245988674  0.9249661029868566  0.0584263448760336  1.0000
  C   C1        1.0  0.4740964525327167  0.35836889912241565  0.2655256184373818  1.0000
  C   C2        1.0  0.43517758418925506  0.2815620517131713  0.16206530469625166  1.0000
  C   C3        1.0  0.3653065775679915  0.5555756406872747  0.2969489257963666  1.0000
  C   C4        1.0  0.35420582088653746  0.4428196074562499  0.9483447018202374  1.0000
  C   C5        1.0  0.5377794784627934  0.1483028134103891  0.44084958491733445  1.0000
  C   C6        1.0  0.9173078199735194  0.12666171168051843  0.9344720880990098  1.0000
  C   C7        1.0  0.8593888078406905  0.8588325400430218  0.5860591384758334  1.0000
  C   C8        1.0  0.9100531752852713  0.2589445121311107  0.5445541360605899  1.0000
  O   O1        1.0  0.41842129575930553  0.21615425829510967  0.616011220294246  1.0000
  O   O2        1.0  0.8760011063997168  0.3201072086423762  0.8070901451808683  1.0000
  O   O3        1.0  0.05249386492581065  0.8257026827660038  0.5247004281673602  1.0000
  O   O4        1.0  0.7033233530623886  0.319836285970283  0.5302347324712697  1.0000
  O   O5        1.0  0.7610522097212702  0.9514773570956221  0.43056451354167774  1.0000
  O   O6        1.0  0.23868922872592965  0.37254690225275056  0.9153764184198543  1.0000
  O   O7        1.0  0.773828415752527  0.7750308562238906  0.7855675490379472  1.0000
  O   O8        1.0  0.08715281180847453  0.1301744116299579  0.5072538618200368  1.0000
  O   O9        1.0  0.37240422304406895  0.720566912582668  0.22224350474610757  1.0000
  O   O10       1.0  0.3381499068592002  0.6201961591610612  0.8658482997632166  1.0000
  O   O11       1.0  0.5338606999388942  0.09318838916202545  0.15301738270237927  1.0000
  O   O12       1.0  0.9865554375848589  0.9404101872098839  0.9929907539141155  1.0000
data_image200
_chemical_formula_structural       Mg2C8O12
_chemical_formula_sum              "Mg2 C8 O12"
_cell_length_a       7.872530813609877
_cell_length_b       7.872530813609877
_cell_length_c       7.368803275525341
_cell_angle_alpha    62.34925540174321
_cell_angle_beta     62.34925540174321
_cell_angle_gamma    54.72736521231912

_space_group_name_H-M_alt    "P 1"
_space_group_IT_number       1

loop_
  _space_group_symop_operation_xyz
  'x, y, z'

loop_
  _atom_site_type_symbol
  _atom_site_label
  _atom_site_symmetry_multiplicity
  _atom_site_fract_x
  _atom_site_fract_y
  _atom_site_fract_z
  _atom_site_occupancy
  Mg  Mg1       1.0  0.343097663580205  0.5499382976478687  0.6275203469331998  1.0000
  Mg  Mg2       1.0  0.34325223723513454  0.987765803699147  0.01585565297898306  1.0000
  C   C1        1.0  0.5574177964667989  0.2593963996895721  0.25697131576346893  1.0000
  C   C2        1.0  0.45857863843931695  0.20034751503425047  0.1703409341638379  1.0000
  C   C3        1.0  0.5558955974484904  0.4559534563392042  0.18882002686462818  1.0000
  C   C4        1.0  0.3860757468060132  0.37005732917196704  0.9740303621622415  1.0000
  C   C5        1.0  0.5426836314041912  0.14799032146149146  0.484280594031432  1.0000
  C   C6        1.0  0.962000917038248  0.22946117686626466  0.9632813885718732  1.0000
  C   C7        1.0  0.8312634904359503  0.8019123194696847  0.6897485489745199  1.0000
  C   C8        1.0  0.8752369220895189  0.38211263069783685  0.36346460730801944  1.0000
  O   O1        1.0  0.35955951929620444  0.1724420943766432  0.6259225034263083  1.0000
  O   O2        1.0  0.8663984255409631  0.3602000323106693  0.834066372133029  1.0000
  O   O3        1.0  0.033119440136224254  0.7492923626024682  0.5800831533949062  1.0000
  O   O4        1.0  0.6897968263616325  0.42837325962004624  0.4098324414410237  1.0000
  O   O5        1.0  0.7372486508234415  0.02854108374274263  0.51612197824529  1.0000
  O   O6        1.0  0.28367656545494524  0.34012236534622226  0.9027344544910647  1.0000
  O   O7        1.0  0.7505068489248903  0.7401544731419386  0.8753990944004881  1.0000
  O   O8        1.0  0.040305916264097914  0.2458398840878413  0.34673174302623844  1.0000
  O   O9        1.0  0.43280971612561725  0.65876258702377  0.19347553859703817  1.0000
  O   O10       1.0  0.413075095239234  0.5335496312314781  0.8763731783177718  1.0000
  O   O11       1.0  0.44326241413940953  0.03354531104649518  0.2099406661718123  1.0000
  O   O12       1.0  0.06645767598761143  0.0828830148296598  0.06980331108965958  1.0000
