data_image0
_chemical_formula_structural       Ca2P2H8O10F2
_chemical_formula_sum              "Ca2 P2 H8 O10 F2"
_cell_length_a       8.748547242261026
_cell_length_b       6.5292717768421165
_cell_length_c       5.804229554730758
_cell_angle_alpha    118.85637513684739
_cell_angle_beta     110.64940913561757
_cell_angle_gamma    94.26336680621436

_space_group_name_H-M_alt    "P 1"
_space_group_IT_number       1

loop_
  _space_group_symop_operation_xyz
  'x, y, z'

loop_
  _atom_site_type_symbol
  _atom_site_label
  _atom_site_symmetry_multiplicity
  _atom_site_fract_x
  _atom_site_fract_y
  _atom_site_fract_z
  _atom_site_occupancy
  Ca  Ca1       1.0  0.8577560000000001  0.681029  0.6551770000000005  1.0000
  Ca  Ca2       1.0  0.14224399999999998  0.318971  0.344823  1.0000
  P   P1        1.0  0.849632  0.2011640000000001  0.6391700000000002  1.0000
  P   P2        1.0  0.150368  0.7988360000000001  0.36083  1.0000
  H   H1        1.0  0.6371769999999999  0.9614130000000001  0.8601010000000002  1.0000
  H   H2        1.0  0.362823  0.038587  0.13989900000000002  1.0000
  H   H3        1.0  0.490201  0.746072  0.550903  1.0000
  H   H4        1.0  0.5097989999999999  0.253928  0.449097  1.0000
  H   H5        1.0  0.467799  0.659788  0.9263530000000001  1.0000
  H   H6        1.0  0.532201  0.340212  0.07364700000000003  1.0000
  H   H7        1.0  0.316021  0.615061  0.007344000000000036  1.0000
  H   H8        1.0  0.6839789999999999  0.384939  0.992656  1.0000
  O   O1        1.0  0.934073  0.122304  0.849875  1.0000
  O   O2        1.0  0.06592699999999996  0.8776959999999998  0.15012499999999987  1.0000
  O   O3        1.0  0.725458  0.347878  0.707308  1.0000
  O   O4        1.0  0.274542  0.652122  0.292692  1.0000
  O   O5        1.0  0.968588  0.322955  0.573721  1.0000
  O   O6        1.0  0.031412  0.677045  0.42627900000000013  1.0000
  O   O7        1.0  0.6070329999999999  0.7892829999999998  0.705064  1.0000
  O   O8        1.0  0.392967  0.210717  0.294936  1.0000
  O   O9        1.0  0.343976  0.610748  0.8523040000000001  1.0000
  O   O10       1.0  0.656024  0.38925200000000004  0.1476960000000001  1.0000
  F   F1        1.0  0.268877  0.057338999999999994  0.6658469999999999  1.0000
  F   F2        1.0  0.731123  0.9426610000000001  0.33415300000000003  1.0000
data_image1
_chemical_formula_structural       Ca2P2H8O10F2
_chemical_formula_sum              "Ca2 P2 H8 O10 F2"
_cell_length_a       8.748547242261026
_cell_length_b       6.5292717768421165
_cell_length_c       5.804229554730758
_cell_angle_alpha    118.85637513684739
_cell_angle_beta     110.64940913561757
_cell_angle_gamma    94.26336680621436

_space_group_name_H-M_alt    "P 1"
_space_group_IT_number       1

loop_
  _space_group_symop_operation_xyz
  'x, y, z'

loop_
  _atom_site_type_symbol
  _atom_site_label
  _atom_site_symmetry_multiplicity
  _atom_site_fract_x
  _atom_site_fract_y
  _atom_site_fract_z
  _atom_site_occupancy
  Ca  Ca1       1.0  0.9077080151406294  0.6084493145020934  0.6315511441854624  1.0000
  Ca  Ca2       1.0  0.012197665018475311  0.3363506796550686  0.16934250912196702  1.0000
  P   P1        1.0  0.7403339331857554  0.06485798860641458  0.6300089694623309  1.0000
  P   P2        1.0  0.18056365509486738  0.7777716967053242  0.3273814017729372  1.0000
  H   H1        1.0  0.8706847243935308  0.5377986189087949  0.5527802486684927  1.0000
  H   H2        1.0  0.11713453030193577  0.7961463997539511  0.6881552779776783  1.0000
  H   H3        1.0  0.34340957671868544  0.2557214633876493  0.2517965122095477  1.0000
  H   H4        1.0  0.3200633662526955  0.7282551121928176  0.3751860134345044  1.0000
  H   H5        1.0  0.7826853800556126  0.7978102920695633  0.6036870905532865  1.0000
  H   H6        1.0  0.24549777795809025  0.565291812741413  0.1973284170434475  1.0000
  H   H7        1.0  0.0447492364108854  0.08625402879853492  0.30014481388307046  1.0000
  H   H8        1.0  0.3666298486254531  0.7148338428209222  0.8491160730732833  1.0000
  O   O1        1.0  0.8558554015494967  0.8487979568297765  0.49474536137769615  1.0000
  O   O2        1.0  0.8304514102316403  0.6514974891872335  0.03699220485194503  1.0000
  O   O3        1.0  0.7009368186448361  0.2010542094794864  0.92793544407602  1.0000
  O   O4        1.0  0.34473950795669145  0.8930843874524615  0.35495171586002255  1.0000
  O   O5        1.0  0.6791540580435498  0.7792907767236614  0.7803884172679578  1.0000
  O   O6        1.0  0.1299138680006252  0.705800635451167  0.5367585107408117  1.0000
  O   O7        1.0  0.7093624867074326  0.9144720839631769  0.8218675537802281  1.0000
  O   O8        1.0  0.08007723357410597  0.05669266891070489  0.8869774962004207  1.0000
  O   O9        1.0  0.4802292591024508  0.4046534937414175  0.6724184758210708  1.0000
  O   O10       1.0  0.051136115250001835  0.3712913155068238  0.6095447548921773  1.0000
  F   F1        1.0  0.1722108963087277  0.12337741920053627  0.7620679917531556  1.0000
  F   F2        1.0  0.7677014810965737  0.8344360765550096  0.09164774526912729  1.0000
data_image2
_chemical_formula_structural       Ca2P2H8O10F2
_chemical_formula_sum              "Ca2 P2 H8 O10 F2"
_cell_length_a       8.748547242261026
_cell_length_b       6.5292717768421165
_cell_length_c       5.804229554730758
_cell_angle_alpha    118.85637513684739
_cell_angle_beta     110.64940913561757
_cell_angle_gamma    94.26336680621436

_space_group_name_H-M_alt    "P 1"
_space_group_IT_number       1

loop_
  _space_group_symop_operation_xyz
  'x, y, z'

loop_
  _atom_site_type_symbol
  _atom_site_label
  _atom_site_symmetry_multiplicity
  _atom_site_fract_x
  _atom_site_fract_y
  _atom_site_fract_z
  _atom_site_occupancy
  Ca  Ca1       1.0  0.09878387953960299  0.7621872865044708  0.8594484844730061  1.0000
  Ca  Ca2       1.0  0.29144870578147675  0.7849837318035497  0.5291477366818071  1.0000
  P   P1        1.0  0.09609939613937968  0.6648453178736418  0.4065945974971328  1.0000
  P   P2        1.0  0.7318525880027664  0.2325393221176455  0.44714532466423407  1.0000
  H   H1        1.0  0.3314458065060535  0.5344118257135051  0.4020857075302047  1.0000
  H   H2        1.0  0.09494413304224736  0.06546633427569759  0.12860414368310558  1.0000
  H   H3        1.0  0.841056442929812  0.5193502736168227  0.026075136518784348  1.0000
  H   H4        1.0  0.4861652989857248  0.5481879631697666  0.07150654177530669  1.0000
  H   H5        1.0  0.21208725209700674  0.325747521996675  0.6117174858979979  1.0000
  H   H6        1.0  0.850099460717388  0.4965578247886242  0.9654297355734798  1.0000
  H   H7        1.0  0.2169158868125578  0.036171936236883084  0.5859478326450471  1.0000
  H   H8        1.0  0.5300752763738501  0.17927922463786672  0.7458711262602264  1.0000
  O   O1        1.0  0.2603434608148518  0.8033180509814883  0.9902491243876739  1.0000
  O   O2        1.0  0.8888532473635564  0.8800231985845812  0.1360034626890183  1.0000
  O   O3        1.0  0.6800178238068213  0.23979758862608946  0.330636298086489  1.0000
  O   O4        1.0  0.9616467494382732  0.47518359135978017  0.2497393074876868  1.0000
  O   O5        1.0  0.12760703362982895  0.8560823678851648  0.7486841774564255  1.0000
  O   O6        1.0  0.27949165088563177  0.9564452607445162  0.20930882010826135  1.0000
  O   O7        1.0  0.6200916962734482  0.7178340021442864  0.6083860042963352  1.0000
  O   O8        1.0  0.07481543799462997  0.17965276882330272  0.7191322700393812  1.0000
  O   O9        1.0  0.3650096259025304  0.4251700033050838  0.6813608745983402  1.0000
  O   O10       1.0  0.4712980204858468  0.2987536831951729  0.07853062777030573  1.0000
  F   F1        1.0  0.6554365425205049  0.4299584138325372  0.6396641044650551  1.0000
  F   F2        1.0  0.3689502371276774  0.5553648369063922  0.7942834934445955  1.0000
data_image3
_chemical_formula_structural       Ca2P2H8O10F2
_chemical_formula_sum              "Ca2 P2 H8 O10 F2"
_cell_length_a       8.748547242261026
_cell_length_b       6.5292717768421165
_cell_length_c       5.804229554730758
_cell_angle_alpha    118.85637513684739
_cell_angle_beta     110.64940913561757
_cell_angle_gamma    94.26336680621436

_space_group_name_H-M_alt    "P 1"
_space_group_IT_number       1

loop_
  _space_group_symop_operation_xyz
  'x, y, z'

loop_
  _atom_site_type_symbol
  _atom_site_label
  _atom_site_symmetry_multiplicity
  _atom_site_fract_x
  _atom_site_fract_y
  _atom_site_fract_z
  _atom_site_occupancy
  Ca  Ca1       1.0  0.2605865606601583  0.8804207933931139  0.052047508739633486  1.0000
  Ca  Ca2       1.0  0.057970606303570094  0.16528623541307752  0.01779342853558319  1.0000
  P   P1        1.0  0.5117855922799208  0.21354060374869732  0.8469737963168882  1.0000
  P   P2        1.0  0.6035206920350902  0.1337125645713968  0.9791933139786124  1.0000
  H   H1        1.0  0.8346901166842144  0.31764865925651975  0.7130372620304115  1.0000
  H   H2        1.0  0.7161565048836565  0.3172171856995192  0.17573572500919  1.0000
  H   H3        1.0  0.8648872183239291  0.7364963995232756  0.866536582979279  1.0000
  H   H4        1.0  0.7206983967480483  0.9571162054780871  0.1174474717117846  1.0000
  H   H5        1.0  0.05351579374814719  0.2446459447965026  0.5349184279912151  1.0000
  H   H6        1.0  0.04430977969968808  0.7454492500264678  0.4983447421705023  1.0000
  H   H7        1.0  0.21799236204606132  0.8942249892352265  0.5623195848020259  1.0000
  H   H8        1.0  0.3334830809471896  0.3088098694279324  0.4590741348947631  1.0000
  O   O1        1.0  0.8015987925239187  0.7306121910787624  0.20270744988374645  1.0000
  O   O2        1.0  0.09310029801008568  0.2104345680284041  0.026583226785078296  1.0000
  O   O3        1.0  0.7664816558581151  0.8517504102538851  0.08306613269496665  1.0000
  O   O4        1.0  0.17719612838482135  0.23872480471663948  0.8433821929265832  1.0000
  O   O5        1.0  0.9536639332072809  0.7503753973142011  0.3804450787138194  1.0000
  O   O6        1.0  0.21539506205499492  0.2339883234599256  0.7199610680472688  1.0000
  O   O7        1.0  0.37850898155011237  0.6073930747134  0.21284553715668153  1.0000
  O   O8        1.0  0.41443542284469004  0.12332646375580225  0.7879340414051512  1.0000
  O   O9        1.0  0.7912225546442642  0.4770468128053835  0.5262646023193156  1.0000
  O   O10       1.0  0.057392938802877325  0.24230784633618896  0.23026992697123205  1.0000
  F   F1        1.0  0.6554860375899807  0.7925700594159935  0.3535936007519922  1.0000
  F   F2        1.0  0.8528919452220407  0.1696234694290979  0.7048200296839866  1.0000
data_image4
_chemical_formula_structural       Ca2P2H8O10F2
_chemical_formula_sum              "Ca2 P2 H8 O10 F2"
_cell_length_a       8.748547242261026
_cell_length_b       6.5292717768421165
_cell_length_c       5.804229554730758
_cell_angle_alpha    118.85637513684739
_cell_angle_beta     110.64940913561757
_cell_angle_gamma    94.26336680621436

_space_group_name_H-M_alt    "P 1"
_space_group_IT_number       1

loop_
  _space_group_symop_operation_xyz
  'x, y, z'

loop_
  _atom_site_type_symbol
  _atom_site_label
  _atom_site_symmetry_multiplicity
  _atom_site_fract_x
  _atom_site_fract_y
  _atom_site_fract_z
  _atom_site_occupancy
  Ca  Ca1       1.0  0.4598247211470152  0.07443472330737677  0.013036567106610164  1.0000
  Ca  Ca2       1.0  0.3014122960212262  0.6575163823981711  0.5534408836369948  1.0000
  P   P1        1.0  0.9881899751671881  0.2996856799181842  0.08547470774647081  1.0000
  P   P2        1.0  0.759300155506935  0.09123341705708299  0.8374739709033747  1.0000
  H   H1        1.0  0.7574277598541812  0.905088969229837  0.3666777614998864  1.0000
  H   H2        1.0  0.7085993596970184  0.9698772117280896  0.2509215088773544  1.0000
  H   H3        1.0  0.8218116243551776  0.5429287902124997  0.9599036049639835  1.0000
  H   H4        1.0  0.4417335860489402  0.21851734118536115  0.8026277243625373  1.0000
  H   H5        1.0  0.23469497705082176  0.369032452814281  0.8779257374117151  1.0000
  H   H6        1.0  0.06888147164136171  0.8057779871742241  0.39943520654924214  1.0000
  H   H7        1.0  0.1843872158206068  0.24586992627882864  0.7785656544656376  1.0000
  H   H8        1.0  0.6353527423743799  0.5979765003721695  0.8390204658353468  1.0000
  O   O1        1.0  0.9843621928421271  0.9814166735159233  0.9027749958677305  1.0000
  O   O2        1.0  0.11400002090249473  0.3741415827041692  0.36945501837362826  1.0000
  O   O3        1.0  0.5508552883975426  0.4843661203634042  0.4237892424533811  1.0000
  O   O4        1.0  0.12660733725351747  0.01476551469761489  0.3307069547026913  1.0000
  O   O5        1.0  0.061336241429671645  0.9537020725620096  0.7019696647184901  1.0000
  O   O6        1.0  0.35532874939326575  0.4713492509254138  0.29424985952937277  1.0000
  O   O7        1.0  0.17608151603781153  0.06211706140379647  0.5532064670842374  1.0000
  O   O8        1.0  0.4981086145126028  0.5284845035494072  0.9284925065167045  1.0000
  O   O9        1.0  0.046263134287073626  0.5195456307519635  0.02129937190329656  1.0000
  O   O10       1.0  0.06798195325245615  0.4866735929099377  0.3440743102801207  1.0000
  F   F1        1.0  0.25988347090856223  0.45091309784845635  0.2549054872979468  1.0000
  F   F2        1.0  0.8649764538201907  0.8493659556424973  0.026723431174104917  1.0000
data_image5
_chemical_formula_structural       Ca2P2H8O10F2
_chemical_formula_sum              "Ca2 P2 H8 O10 F2"
_cell_length_a       8.748547242261026
_cell_length_b       6.5292717768421165
_cell_length_c       5.804229554730758
_cell_angle_alpha    118.85637513684739
_cell_angle_beta     110.64940913561757
_cell_angle_gamma    94.26336680621436

_space_group_name_H-M_alt    "P 1"
_space_group_IT_number       1

loop_
  _space_group_symop_operation_xyz
  'x, y, z'

loop_
  _atom_site_type_symbol
  _atom_site_label
  _atom_site_symmetry_multiplicity
  _atom_site_fract_x
  _atom_site_fract_y
  _atom_site_fract_z
  _atom_site_occupancy
  Ca  Ca1       1.0  0.9238783567561768  0.8267590817206383  0.04384957451839  1.0000
  Ca  Ca2       1.0  0.3563563198599695  0.2240667734586168  0.666006593619386  1.0000
  P   P1        1.0  0.555731632754032  0.045853957806684775  0.4879196172769298  1.0000
  P   P2        1.0  0.5345376171753742  0.45196115534054115  0.12836582915770123  1.0000
  H   H1        1.0  0.3229459505964769  0.9682136259652907  0.787538192307693  1.0000
  H   H2        1.0  0.6225311241421423  0.7898532499275461  0.39148650741663005  1.0000
  H   H3        1.0  0.06977717767222202  0.3811845744303355  0.07591635307471734  1.0000
  H   H4        1.0  0.298000388458604  0.9359260138589889  0.7846437988337129  1.0000
  H   H5        1.0  0.1945859473416931  0.16692772903479636  0.004627566202543676  1.0000
  H   H6        1.0  0.4303691240493208  0.08879435586277395  0.538715724949725  1.0000
  H   H7        1.0  0.8689735086009023  0.27493485310696997  0.48797404568176717  1.0000
  H   H8        1.0  0.5787385665717011  0.8521128788997885  0.13149711549340282  1.0000
  O   O1        1.0  0.24023220815433888  0.6561639363062568  0.3077872776193544  1.0000
  O   O2        1.0  0.9243877172320936  0.977734735206468  0.23953776433268104  1.0000
  O   O3        1.0  0.4487676143307908  0.8006607230195186  0.24913781675059  1.0000
  O   O4        1.0  0.8402189166881726  0.16039177108905278  0.958178708297055  1.0000
  O   O5        1.0  0.6691972186090425  0.6175014475084026  0.9759607751620933  1.0000
  O   O6        1.0  0.7228023513525841  0.6991998127159604  0.47478128732473124  1.0000
  O   O7        1.0  0.7519892048003385  0.9024681132759724  0.6960681473574368  1.0000
  O   O8        1.0  0.5679179812868824  0.32041573167953175  0.7181163295517763  1.0000
  O   O9        1.0  0.8533457521107266  0.1789202412655868  0.8837525486087543  1.0000
  O   O10       1.0  0.9770271121560654  0.71536822030248  0.6390425712161232  1.0000
  F   F1        1.0  0.8800097351012255  0.9420304489013915  0.07260978759950376  1.0000
  F   F2        1.0  0.08639945824597817  0.6469799943151884  0.19595121995189402  1.0000
data_image6
_chemical_formula_structural       Ca2P2H8O10F2
_chemical_formula_sum              "Ca2 P2 H8 O10 F2"
_cell_length_a       8.748547242261026
_cell_length_b       6.5292717768421165
_cell_length_c       5.804229554730758
_cell_angle_alpha    118.85637513684739
_cell_angle_beta     110.64940913561757
_cell_angle_gamma    94.26336680621436

_space_group_name_H-M_alt    "P 1"
_space_group_IT_number       1

loop_
  _space_group_symop_operation_xyz
  'x, y, z'

loop_
  _atom_site_type_symbol
  _atom_site_label
  _atom_site_symmetry_multiplicity
  _atom_site_fract_x
  _atom_site_fract_y
  _atom_site_fract_z
  _atom_site_occupancy
  Ca  Ca1       1.0  0.08027571299862757  0.2516408134838457  0.08598021604120731  1.0000
  Ca  Ca2       1.0  0.0252277007966768  0.7000281159052975  0.3304101488320157  1.0000
  P   P1        1.0  0.3987944365653675  0.45248876136611216  0.6486118927714415  1.0000
  P   P2        1.0  0.7466189566184767  0.770361940478324  0.4622794808965409  1.0000
  H   H1        1.0  0.5367322158272145  0.276369661471108  0.7493335516483057  1.0000
  H   H2        1.0  0.7591842378114961  0.07795272431758349  0.9706092388387333  1.0000
  H   H3        1.0  0.24483952111222607  0.38103557033855395  0.6165417833672109  1.0000
  H   H4        1.0  0.5888761745300144  0.3965209103189409  0.0447448268532753  1.0000
  H   H5        1.0  0.8791548493463779  0.6444710898213089  0.490656336536631  1.0000
  H   H6        1.0  0.01103950571268797  0.09928229660727084  0.08781134965829551  1.0000
  H   H7        1.0  0.0024910239008022472  0.9734912817366421  0.6808563740924001  1.0000
  H   H8        1.0  0.19248277945735026  0.6514840592280962  0.03272880236909259  1.0000
  O   O1        1.0  0.11612718550895806  0.8907268981565721  0.23992300126701593  1.0000
  O   O2        1.0  0.7250750415441871  0.7448360231119295  0.6309462089277531  1.0000
  O   O3        1.0  0.21567863332893467  0.6539596550283022  0.7617185670723075  1.0000
  O   O4        1.0  0.06592159853244084  0.6923159779298658  0.031541312391254905  1.0000
  O   O5        1.0  0.9337068021995947  0.089818354761519  0.09474300616420805  1.0000
  O   O6        1.0  0.38587389421991247  0.11693516387458658  0.8976872948551318  1.0000
  O   O7        1.0  0.014148497532005422  0.9149217859099963  0.7201260145666311  1.0000
  O   O8        1.0  0.4798229149891995  0.710839317398495  0.7119370293657994  1.0000
  O   O9        1.0  0.9062857078333764  0.24029793073350447  0.4469722726735199  1.0000
  O   O10       1.0  0.6321762275983929  0.16672281060891692  0.2428747178382764  1.0000
  F   F1        1.0  0.588105070122765  0.2859610291429817  0.45030392514308915  1.0000
  F   F2        1.0  0.4954897758118477  0.35422498124535196  0.25444315632739745  1.0000
data_image7
_chemical_formula_structural       Ca2P2H8O10F2
_chemical_formula_sum              "Ca2 P2 H8 O10 F2"
_cell_length_a       8.748547242261026
_cell_length_b       6.5292717768421165
_cell_length_c       5.804229554730758
_cell_angle_alpha    118.85637513684739
_cell_angle_beta     110.64940913561757
_cell_angle_gamma    94.26336680621436

_space_group_name_H-M_alt    "P 1"
_space_group_IT_number       1

loop_
  _space_group_symop_operation_xyz
  'x, y, z'

loop_
  _atom_site_type_symbol
  _atom_site_label
  _atom_site_symmetry_multiplicity
  _atom_site_fract_x
  _atom_site_fract_y
  _atom_site_fract_z
  _atom_site_occupancy
  Ca  Ca1       1.0  0.22993167606000497  0.4865613354671723  0.13597408484201878  1.0000
  Ca  Ca2       1.0  0.7480863106902689  0.39339605164786917  0.46569830680527957  1.0000
  P   P1        1.0  0.08371965907281265  0.8524462608620524  0.553762253082823  1.0000
  P   P2        1.0  0.24787360470509157  0.37608659645775333  0.9661621386767365  1.0000
  H   H1        1.0  0.8395626282435842  0.7086525554768741  0.9890273646451533  1.0000
  H   H2        1.0  0.9214803141039738  0.4227046563246404  0.3183622262949939  1.0000
  H   H3        1.0  0.8832710992901411  0.8541798845071753  0.9145663007548137  1.0000
  H   H4        1.0  0.8686825782060623  0.6186941636260599  0.5873462283052504  1.0000
  H   H5        1.0  0.400509371800581  0.7579241765197366  0.5093332561664283  1.0000
  H   H6        1.0  0.31543244258500636  0.6396862743422389  0.12245754955802113  1.0000
  H   H7        1.0  0.8441389113213518  0.9170556062745163  0.8124294565204764  1.0000
  H   H8        1.0  0.26153918643831275  0.990319175994955  0.1656039008666994  1.0000
  O   O1        1.0  0.08921547417412512  0.31515896451310255  0.5246201730624307  1.0000
  O   O2        1.0  0.3768418269683025  0.5732760297651112  0.8855849667997973  1.0000
  O   O3        1.0  0.24251646687480388  0.7592288158757583  0.43622597725152445  1.0000
  O   O4        1.0  0.7984078448098444  0.9692299286707566  0.3730634651983564  1.0000
  O   O5        1.0  0.9088736732956022  0.026213453136733733  0.8217043422628194  1.0000
  O   O6        1.0  0.6362504657463433  0.261211041797651  0.47662081493763253  1.0000
  O   O7        1.0  0.19767440111900214  0.8216463732329657  0.67620189198351  1.0000
  O   O8        1.0  0.38981114142370643  0.020763351567438804  0.887083021356375  1.0000
  O   O9        1.0  0.37870752806247765  0.723174101254699  0.43293778355837276  1.0000
  O   O10       1.0  0.9139731627947185  0.8076121640551719  0.49781473314214963  1.0000
  F   F1        1.0  0.38404332413392694  0.7185066388146879  0.2576522496110556  1.0000
  F   F2        1.0  0.5651412757833896  0.5275053473756088  0.38155111051673885  1.0000
data_image8
_chemical_formula_structural       Ca2P2H8O10F2
_chemical_formula_sum              "Ca2 P2 H8 O10 F2"
_cell_length_a       8.748547242261026
_cell_length_b       6.5292717768421165
_cell_length_c       5.804229554730758
_cell_angle_alpha    118.85637513684739
_cell_angle_beta     110.64940913561757
_cell_angle_gamma    94.26336680621436

_space_group_name_H-M_alt    "P 1"
_space_group_IT_number       1

loop_
  _space_group_symop_operation_xyz
  'x, y, z'

loop_
  _atom_site_type_symbol
  _atom_site_label
  _atom_site_symmetry_multiplicity
  _atom_site_fract_x
  _atom_site_fract_y
  _atom_site_fract_z
  _atom_site_occupancy
  Ca  Ca1       1.0  0.08304326156121533  0.8137672073993372  0.4790647550544236  1.0000
  Ca  Ca2       1.0  0.9271749954932602  0.7851040721507161  0.08263458105648169  1.0000
  P   P1        1.0  0.06598790269345045  0.32984625548124313  0.011415066313929856  1.0000
  P   P2        1.0  0.2623504115617834  0.9897008642437868  0.03781722765415907  1.0000
  H   H1        1.0  0.28824919689213857  0.5819887011602987  0.44212114642141387  1.0000
  H   H2        1.0  0.6928687098843511  0.41045216250859085  0.4017672803965979  1.0000
  H   H3        1.0  0.737121626318185  0.008151524152708589  0.2874024105221906  1.0000
  H   H4        1.0  0.740615809801966  0.34743166295811534  0.5531838003662415  1.0000
  H   H5        1.0  0.872837553593854  0.7157750236801803  0.8899223164189607  1.0000
  H   H6        1.0  0.7095466726459563  0.9314213555771858  0.5128250019624829  1.0000
  H   H7        1.0  0.25585844536544755  0.4629309844895033  0.23919830213708337  1.0000
  H   H8        1.0  0.46008518984308466  0.13236593941110186  0.5542290803277865  1.0000
  O   O1        1.0  0.23264563705015462  0.7579590805107728  0.9664497336780187  1.0000
  O   O2        1.0  0.6688582178612705  0.8847868581287912  0.3701968572786427  1.0000
  O   O3        1.0  0.34643466254055966  0.8191050032601197  0.9082270804174186  1.0000
  O   O4        1.0  0.542498718805291  0.7839584308712801  0.39230034595675534  1.0000
  O   O5        1.0  0.0718342661857605  0.516664919196046  0.8331729946658015  1.0000
  O   O6        1.0  0.8818296042363727  0.2811403438645357  0.069189081172226  1.0000
  O   O7        1.0  0.6463427013950422  0.7313909229815181  0.460244547270122  1.0000
  O   O8        1.0  0.5943905036911019  0.9695434430032037  0.7713255589769688  1.0000
  O   O9        1.0  0.4887472816508307  0.004521141101577086  0.4288986315696093  1.0000
  O   O10       1.0  0.7282973686014884  0.1247264483536128  0.7894073277111602  1.0000
  F   F1        1.0  0.22010683615235394  0.19196860647662106  0.3294891465418459  1.0000
  F   F2        1.0  0.17723989155456366  0.10259700530423288  0.5422173948427371  1.0000
data_image9
_chemical_formula_structural       Ca2P2H8O10F2
_chemical_formula_sum              "Ca2 P2 H8 O10 F2"
_cell_length_a       8.748547242261026
_cell_length_b       6.5292717768421165
_cell_length_c       5.804229554730758
_cell_angle_alpha    118.85637513684739
_cell_angle_beta     110.64940913561757
_cell_angle_gamma    94.26336680621436

_space_group_name_H-M_alt    "P 1"
_space_group_IT_number       1

loop_
  _space_group_symop_operation_xyz
  'x, y, z'

loop_
  _atom_site_type_symbol
  _atom_site_label
  _atom_site_symmetry_multiplicity
  _atom_site_fract_x
  _atom_site_fract_y
  _atom_site_fract_z
  _atom_site_occupancy
  Ca  Ca1       1.0  0.9489323853194946  0.25371052806974603  0.24739153444534168  1.0000
  Ca  Ca2       1.0  0.30842842414131155  0.22676096207942464  0.01925373252015561  1.0000
  P   P1        1.0  0.7485477544832975  0.9492392335087061  0.6734536970034242  1.0000
  P   P2        1.0  0.6797780199049157  0.8288984975079075  0.016081599052995443  1.0000
  H   H1        1.0  0.25633775036840234  0.1434326167218387  0.9969504602486268  1.0000
  H   H2        1.0  0.47471203472377965  0.3044045077658666  0.8913644547828881  1.0000
  H   H3        1.0  0.673100562147738  0.15369081678727525  0.017547420851769857  1.0000
  H   H4        1.0  0.017192647326737642  0.831651856424287  0.6581014301627874  1.0000
  H   H5        1.0  0.16123269750823965  0.5054625479970127  0.7636099871015176  1.0000
  H   H6        1.0  0.5641175059136003  0.07774064352270216  0.21533805248327553  1.0000
  H   H7        1.0  0.17404117974001565  0.3696570478277863  0.2615159601846244  1.0000
  H   H8        1.0  0.5688132111390587  0.3481111364089884  0.006971425580559298  1.0000
  O   O1        1.0  0.2422183134840452  0.31540186959318817  0.4259118646441493  1.0000
  O   O2        1.0  0.20764618784596678  0.02685405690863263  0.7971708978802781  1.0000
  O   O3        1.0  0.7355555816611741  0.510205187034444  0.33471058671784704  1.0000
  O   O4        1.0  0.9597822787400219  0.8431047971971566  0.1087460678863863  1.0000
  O   O5        1.0  0.7291529800277203  0.9759158717060927  0.7362567997770384  1.0000
  O   O6        1.0  0.4581638660893077  0.9781090472679352  0.9234463601897005  1.0000
  O   O7        1.0  0.3846036313188961  0.4663196120163775  0.6804929426289164  1.0000
  O   O8        1.0  0.4907670406610123  0.2772314593021292  0.3024916927133745  1.0000
  O   O9        1.0  0.34870924365895917  0.9953582773268863  0.31566919310353114  1.0000
  O   O10       1.0  0.2589040996899712  0.8468289478496445  0.5210310762413428  1.0000
  F   F1        1.0  0.5052467465309292  0.37180852588153357  0.5356540021375622  1.0000
  F   F2        1.0  0.690170486520401  0.7973154264022924  0.4843774074452085  1.0000
data_image10
_chemical_formula_structural       Ca2P2H8O10F2
_chemical_formula_sum              "Ca2 P2 H8 O10 F2"
_cell_length_a       8.748547242261026
_cell_length_b       6.5292717768421165
_cell_length_c       5.804229554730758
_cell_angle_alpha    118.85637513684739
_cell_angle_beta     110.64940913561757
_cell_angle_gamma    94.26336680621436

_space_group_name_H-M_alt    "P 1"
_space_group_IT_number       1

loop_
  _space_group_symop_operation_xyz
  'x, y, z'

loop_
  _atom_site_type_symbol
  _atom_site_label
  _atom_site_symmetry_multiplicity
  _atom_site_fract_x
  _atom_site_fract_y
  _atom_site_fract_z
  _atom_site_occupancy
  Ca  Ca1       1.0  0.944055187768754  0.17023783135255144  0.6113702029397245  1.0000
  Ca  Ca2       1.0  0.3439731295511592  0.6448148926319845  0.37391003459197236  1.0000
  P   P1        1.0  0.38213163253385574  0.24373360280878842  0.7548322569346055  1.0000
  P   P2        1.0  0.5575946996468701  0.879396025033202  0.8589210759382695  1.0000
  H   H1        1.0  0.9320694405469112  0.7564255883917212  0.35164532402995974  1.0000
  H   H2        1.0  0.5384911476176057  0.12867976063535025  0.9393497338605812  1.0000
  H   H3        1.0  0.16011137943860376  0.7303842414548853  0.32311952484451467  1.0000
  H   H4        1.0  0.4832810307852924  0.5975273794028908  0.35040247699362226  1.0000
  H   H5        1.0  0.38415050350886304  0.6500033547636122  0.08371592336334288  1.0000
  H   H6        1.0  0.8796103368513286  0.2905984482495114  0.9433699038345367  1.0000
  H   H7        1.0  0.4036712671513669  0.2731720468145795  0.1010502633289434  1.0000
  H   H8        1.0  0.8481547740811948  0.6234455023368355  0.6428657190335798  1.0000
  O   O1        1.0  0.5329252120427554  0.048379192827269435  0.30342462661792524  1.0000
  O   O2        1.0  0.14161296936799772  0.8635073569603264  0.050433734631951666  1.0000
  O   O3        1.0  0.47090167031274177  0.16098695160326315  0.1596393513464136  1.0000
  O   O4        1.0  0.7169505210258649  0.2699792172970774  0.08594042738332064  1.0000
  O   O5        1.0  0.9501487975940108  0.6499276513713994  0.24173382762819529  1.0000
  O   O6        1.0  0.6033820712045781  0.07077844187006122  0.648131576817832  1.0000
  O   O7        1.0  0.48165149736450985  0.5718345614950522  0.46844086385681294  1.0000
  O   O8        1.0  0.9800446001027012  0.9711089937482029  0.3983340057056921  1.0000
  O   O9        1.0  0.5617146380127451  0.1350717052264372  0.20407770986275864  1.0000
  O   O10       1.0  0.34746070580149535  0.5439958561019012  0.4015723721458926  1.0000
  F   F1        1.0  0.25706907903895626  0.4269187255977158  0.3070669253629603  1.0000
  F   F2        1.0  0.679766767354522  0.21033657429507002  0.3629044333422371  1.0000
data_image11
_chemical_formula_structural       Ca2P2H8O10F2
_chemical_formula_sum              "Ca2 P2 H8 O10 F2"
_cell_length_a       8.748547242261026
_cell_length_b       6.5292717768421165
_cell_length_c       5.804229554730758
_cell_angle_alpha    118.85637513684739
_cell_angle_beta     110.64940913561757
_cell_angle_gamma    94.26336680621436

_space_group_name_H-M_alt    "P 1"
_space_group_IT_number       1

loop_
  _space_group_symop_operation_xyz
  'x, y, z'

loop_
  _atom_site_type_symbol
  _atom_site_label
  _atom_site_symmetry_multiplicity
  _atom_site_fract_x
  _atom_site_fract_y
  _atom_site_fract_z
  _atom_site_occupancy
  Ca  Ca1       1.0  0.28079631622131274  0.5261414970186706  0.6016539483389352  1.0000
  Ca  Ca2       1.0  0.384214799189067  0.12182410668901866  0.12137506986618973  1.0000
  P   P1        1.0  0.9257602075813338  0.09984844620339572  0.23873701388947666  1.0000
  P   P2        1.0  0.981369613183233  0.6660599050810561  0.8642152341781184  1.0000
  H   H1        1.0  0.6414577674877364  0.5520675439038314  0.035164578177500516  1.0000
  H   H2        1.0  0.1736407935168245  0.6254066645342391  0.28813881415408105  1.0000
  H   H3        1.0  0.9589221282221843  0.3244085271653603  0.8447230038727866  1.0000
  H   H4        1.0  0.05878374306485057  0.8904327012132853  0.34645436849677935  1.0000
  H   H5        1.0  0.40358984698104905  0.17358262836933136  0.4100377842551097  1.0000
  H   H6        1.0  0.6300473376177251  0.9682933090953156  0.2507111537270248  1.0000
  H   H7        1.0  0.620556476758793  0.5077187696006149  0.5834446569206193  1.0000
  H   H8        1.0  0.287172349402681  0.5602867541601881  0.7510041229252238  1.0000
  O   O1        1.0  0.12259609725151677  0.6311585318180732  0.9619371650915127  1.0000
  O   O2        1.0  0.07218281287350692  0.3250337869649229  0.9094679512108996  1.0000
  O   O3        1.0  0.04903226580063347  0.8602687639076976  0.9750760378665291  1.0000
  O   O4        1.0  0.2572225021394843  0.0021831999420101056  0.11082516581154778  1.0000
  O   O5        1.0  0.8419636242324486  0.8729914973373525  0.41129935916978866  1.0000
  O   O6        1.0  0.7785964092248605  0.38671135349432006  0.02440508103609318  1.0000
  O   O7        1.0  0.458670332111069  0.9221426018630154  0.0720752615161473  1.0000
  O   O8        1.0  0.944269942214305  0.5935376218985766  0.6156236065398843  1.0000
  O   O9        1.0  0.8951950783603024  0.08298174490118981  0.7936458798067179  1.0000
  O   O10       1.0  0.06634318149008323  0.9780350540731888  0.2520008254905406  1.0000
  F   F1        1.0  0.08873594607211999  0.7393644586190931  0.9291903352932422  1.0000
  F   F2        1.0  0.21325448692641658  0.438381673724507  0.1363063285170938  1.0000
data_image12
_chemical_formula_structural       Ca2P2H8O10F2
_chemical_formula_sum              "Ca2 P2 H8 O10 F2"
_cell_length_a       8.748547242261026
_cell_length_b       6.5292717768421165
_cell_length_c       5.804229554730758
_cell_angle_alpha    118.85637513684739
_cell_angle_beta     110.64940913561757
_cell_angle_gamma    94.26336680621436

_space_group_name_H-M_alt    "P 1"
_space_group_IT_number       1

loop_
  _space_group_symop_operation_xyz
  'x, y, z'

loop_
  _atom_site_type_symbol
  _atom_site_label
  _atom_site_symmetry_multiplicity
  _atom_site_fract_x
  _atom_site_fract_y
  _atom_site_fract_z
  _atom_site_occupancy
  Ca  Ca1       1.0  0.8114379412563721  0.483925086130057  0.9452053101267666  1.0000
  Ca  Ca2       1.0  0.509308681524999  0.8962683771774209  0.6033774539391743  1.0000
  P   P1        1.0  0.6958445638883859  0.6296885521151125  0.806546323467046  1.0000
  P   P2        1.0  0.6523756493006658  0.8816708999220282  0.7438645170768723  1.0000
  H   H1        1.0  0.9508702260209247  0.28257947755628265  0.08923049143049866  1.0000
  H   H2        1.0  0.22796634849146358  0.08417137595824897  0.6260735671967268  1.0000
  H   H3        1.0  0.74929390358011  0.953041239270533  0.3103366200812161  1.0000
  H   H4        1.0  0.4719563703984022  0.42663127020932734  0.3426257953979075  1.0000
  H   H5        1.0  0.5763005617482122  0.04681062349118292  0.95206346467603  1.0000
  H   H6        1.0  0.33306489884853363  0.2621708322549239  0.5051681877812371  1.0000
  H   H7        1.0  0.041543509578332305  0.8833964727818966  0.22601882368326187  1.0000
  H   H8        1.0  0.20389402165892534  0.9780599289515521  0.47024946964666015  1.0000
  O   O1        1.0  0.6572431150270859  0.5028463173366617  0.7087161821254995  1.0000
  O   O2        1.0  0.1631879481865326  0.006294598260865314  0.780252784881668  1.0000
  O   O3        1.0  0.5588761180333677  0.7633895192111595  0.82641589751438  1.0000
  O   O4        1.0  0.8625366650412616  0.23633624803915154  0.41040656484256033  1.0000
  O   O5        1.0  0.5388409791048616  0.18399627535109175  0.14627693220973015  1.0000
  O   O6        1.0  0.5553829058371775  0.11705472948597162  0.9313542239397066  1.0000
  O   O7        1.0  0.09822455179528333  0.4735576780003612  0.7403479035419878  1.0000
  O   O8        1.0  0.2875264994800091  0.47304719864041544  0.21848610517918132  1.0000
  O   O9        1.0  0.12735375661759463  0.6867065869519138  0.9437065878228168  1.0000
  O   O10       1.0  0.46181529793102527  0.18972870091238292  0.3707192274123372  1.0000
  F   F1        1.0  0.21923687601849906  0.3201632203954432  0.8926280348068758  1.0000
  F   F2        1.0  0.9602283232604805  0.5808274441005778  0.41627060081737  1.0000
data_image13
_chemical_formula_structural       Ca2P2H8O10F2
_chemical_formula_sum              "Ca2 P2 H8 O10 F2"
_cell_length_a       8.748547242261026
_cell_length_b       6.5292717768421165
_cell_length_c       5.804229554730758
_cell_angle_alpha    118.85637513684739
_cell_angle_beta     110.64940913561757
_cell_angle_gamma    94.26336680621436

_space_group_name_H-M_alt    "P 1"
_space_group_IT_number       1

loop_
  _space_group_symop_operation_xyz
  'x, y, z'

loop_
  _atom_site_type_symbol
  _atom_site_label
  _atom_site_symmetry_multiplicity
  _atom_site_fract_x
  _atom_site_fract_y
  _atom_site_fract_z
  _atom_site_occupancy
  Ca  Ca1       1.0  0.16996363579710305  0.4172918880267389  0.345794065768132  1.0000
  Ca  Ca2       1.0  0.9392008027607517  0.11614299406255668  0.902144649226102  1.0000
  P   P1        1.0  0.3961826766608283  0.17968490021303296  0.7335048248060048  1.0000
  P   P2        1.0  0.922232169774361  0.7511584044841584  0.23630133154802024  1.0000
  H   H1        1.0  0.07546364422887564  0.12019737984519452  0.5372795938164927  1.0000
  H   H2        1.0  0.02325427836694871  0.9258372651529498  0.269731581909582  1.0000
  H   H3        1.0  0.4962450606690254  0.15485142151010223  0.1463193329400383  1.0000
  H   H4        1.0  0.8416754978243262  0.41899813059717417  0.6648763900739141  1.0000
  H   H5        1.0  0.302258481606259  0.33851746493019164  0.5782582620158792  1.0000
  H   H6        1.0  0.3424902055412531  0.44239445007406175  0.6470557108987123  1.0000
  H   H7        1.0  0.5337704762350768  0.8446134966798127  0.7348713865503669  1.0000
  H   H8        1.0  0.4616205148631707  0.07031798214302398  0.5365598188072909  1.0000
  O   O1        1.0  0.18252661954102223  0.15369415993336588  0.9332106974179624  1.0000
  O   O2        1.0  0.38301608129404485  0.7162328305712435  0.42474926828253956  1.0000
  O   O3        1.0  0.6066531600154121  0.7527092649124825  0.976926784402167  1.0000
  O   O4        1.0  0.25996432328247465  0.8659933157614432  0.9726187435444444  1.0000
  O   O5        1.0  0.10555950889829546  0.12729126791964518  0.3063683487707749  1.0000
  O   O6        1.0  0.17678919695026707  0.8708645945807802  0.9260076229984406  1.0000
  O   O7        1.0  0.6144815560110146  0.6065628318465315  0.5753599144663895  1.0000
  O   O8        1.0  0.588062069771695  0.09399754606420174  0.8663871366588864  1.0000
  O   O9        1.0  0.8414370750688249  0.6747978759085527  0.9445282335946104  1.0000
  O   O10       1.0  0.021171404543565586  0.08383130364018143  0.35748203464754624  1.0000
  F   F1        1.0  0.8901075422763824  0.6684329024283215  0.33531130105257034  1.0000
  F   F2        1.0  0.22808242896644515  0.9853421055322542  0.8829478039770038  1.0000
data_image14
_chemical_formula_structural       Ca2P2H8O10F2
_chemical_formula_sum              "Ca2 P2 H8 O10 F2"
_cell_length_a       8.748547242261026
_cell_length_b       6.5292717768421165
_cell_length_c       5.804229554730758
_cell_angle_alpha    118.85637513684739
_cell_angle_beta     110.64940913561757
_cell_angle_gamma    94.26336680621436

_space_group_name_H-M_alt    "P 1"
_space_group_IT_number       1

loop_
  _space_group_symop_operation_xyz
  'x, y, z'

loop_
  _atom_site_type_symbol
  _atom_site_label
  _atom_site_symmetry_multiplicity
  _atom_site_fract_x
  _atom_site_fract_y
  _atom_site_fract_z
  _atom_site_occupancy
  Ca  Ca1       1.0  0.8744494774546183  0.45458032416900096  0.14543789019808173  1.0000
  Ca  Ca2       1.0  0.17232654374311096  0.7356796251897322  0.9070934915653197  1.0000
  P   P1        1.0  0.2219368134974502  0.42737668921472505  0.4605263468110934  1.0000
  P   P2        1.0  0.6134175916668028  0.4164288652827963  0.2268390920944512  1.0000
  H   H1        1.0  0.03601368598174304  0.21341034583747387  0.887515943555627  1.0000
  H   H2        1.0  0.09441407533086021  0.30249455658486113  0.9096382688730955  1.0000
  H   H3        1.0  0.1317487816850189  0.9736861218116246  0.7156574344262481  1.0000
  H   H4        1.0  0.42111570481210947  0.6649285072926432  0.014970046177040786  1.0000
  H   H5        1.0  0.32489350894320523  0.041464768117293715  0.7619524420006201  1.0000
  H   H6        1.0  0.6332163657061756  0.5455581762362272  0.8362845317460597  1.0000
  H   H7        1.0  0.47280565625987947  0.6732309937942773  0.738955065025948  1.0000
  H   H8        1.0  0.30872106718015857  0.705724737723358  0.3563354155048728  1.0000
  O   O1        1.0  0.6772123199871203  0.8161531123332679  0.35334484244231135  1.0000
  O   O2        1.0  0.5190452940732939  0.9277901016830583  0.6380646246034303  1.0000
  O   O3        1.0  0.37610688177664997  0.29988711926080214  0.9213277061498957  1.0000
  O   O4        1.0  0.9116597541142255  0.6500186336925253  0.1695655471412465  1.0000
  O   O5        1.0  0.5386528811650351  0.879135105991736  0.990699511137791  1.0000
  O   O6        1.0  0.32312792699667625  0.2329883843922289  0.9027475822949782  1.0000
  O   O7        1.0  0.1558884717960609  0.10249477866818779  0.6903405068951542  1.0000
  O   O8        1.0  0.9349778266187059  0.6966763793025166  0.18681336904410273  1.0000
  O   O9        1.0  0.4386233262157475  0.3673814856229001  0.8856440765157458  1.0000
  O   O10       1.0  0.8250737135022064  0.30702036479488015  0.8608395233022748  1.0000
  F   F1        1.0  0.41964510921388865  0.4333139203954488  0.24701017513871193  1.0000
  F   F2        1.0  0.8133657425059937  0.32627102283004206  0.7897498703969177  1.0000
data_image15
_chemical_formula_structural       Ca2P2H8O10F2
_chemical_formula_sum              "Ca2 P2 H8 O10 F2"
_cell_length_a       8.748547242261026
_cell_length_b       6.5292717768421165
_cell_length_c       5.804229554730758
_cell_angle_alpha    118.85637513684739
_cell_angle_beta     110.64940913561757
_cell_angle_gamma    94.26336680621436

_space_group_name_H-M_alt    "P 1"
_space_group_IT_number       1

loop_
  _space_group_symop_operation_xyz
  'x, y, z'

loop_
  _atom_site_type_symbol
  _atom_site_label
  _atom_site_symmetry_multiplicity
  _atom_site_fract_x
  _atom_site_fract_y
  _atom_site_fract_z
  _atom_site_occupancy
  Ca  Ca1       1.0  0.8232498642464634  0.8279818599739883  0.28127952871727757  1.0000
  Ca  Ca2       1.0  0.7976791158071137  0.877880372792788  0.9481964932056144  1.0000
  P   P1        1.0  0.42824966879561543  0.9166442901478149  0.27876343484967947  1.0000
  P   P2        1.0  0.09471374773420393  0.9242725729709491  0.6732337507419288  1.0000
  H   H1        1.0  0.30445456615416333  0.3834615353262052  0.15512993466109037  1.0000
  H   H2        1.0  0.3287503070750972  0.15102091507287696  0.13152493885718286  1.0000
  H   H3        1.0  0.05117573926690966  0.6433856911608018  0.7253396918531507  1.0000
  H   H4        1.0  0.271889362949878  0.0038400297053158283  0.5450676081236452  1.0000
  H   H5        1.0  0.19848834192816867  0.18682752014137805  0.9928975482471287  1.0000
  H   H6        1.0  0.45068892650306225  0.8212303414475173  0.8771652723662555  1.0000
  H   H7        1.0  0.010113504249602556  0.48709826450794935  0.9095958658726886  1.0000
  H   H8        1.0  0.24949760170420632  0.2069476160686463  0.876306202786509  1.0000
  O   O1        1.0  0.5630619458352157  0.784607691981364  0.6090745628607692  1.0000
  O   O2        1.0  0.07586318149697036  0.033534074362250976  0.978884950018255  1.0000
  O   O3        1.0  0.7452077876223484  0.14736780034354524  0.16974658474646276  1.0000
  O   O4        1.0  0.45791274766088463  0.5862525153206661  0.3502712566405535  1.0000
  O   O5        1.0  0.94632989668753  0.14081532282580156  0.890847894421313  1.0000
  O   O6        1.0  0.6662193215888692  0.7655607760971179  0.3296066483599134  1.0000
  O   O7        1.0  0.8978767702647019  0.9410889132559532  0.47074169248662656  1.0000
  O   O8        1.0  0.276846006148844  0.8295056328061037  0.8405432335275691  1.0000
  O   O9        1.0  0.6513843398015524  0.5231383664358873  0.9918237073507044  1.0000
  O   O10       1.0  0.8098011931724614  0.4852569796858006  0.9262044899078319  1.0000
  F   F1        1.0  0.8798971401993185  0.428529514814727  0.4838990159332752  1.0000
  F   F2        1.0  0.9018371332786046  0.6528852024930529  0.1903344641905278  1.0000
data_image16
_chemical_formula_structural       Ca2P2H8O10F2
_chemical_formula_sum              "Ca2 P2 H8 O10 F2"
_cell_length_a       8.748547242261026
_cell_length_b       6.5292717768421165
_cell_length_c       5.804229554730758
_cell_angle_alpha    118.85637513684739
_cell_angle_beta     110.64940913561757
_cell_angle_gamma    94.26336680621436

_space_group_name_H-M_alt    "P 1"
_space_group_IT_number       1

loop_
  _space_group_symop_operation_xyz
  'x, y, z'

loop_
  _atom_site_type_symbol
  _atom_site_label
  _atom_site_symmetry_multiplicity
  _atom_site_fract_x
  _atom_site_fract_y
  _atom_site_fract_z
  _atom_site_occupancy
  Ca  Ca1       1.0  0.08741284014831763  0.7597151503287023  0.02142449139500968  1.0000
  Ca  Ca2       1.0  0.5750867278984515  0.6283975690075749  0.22173466613458004  1.0000
  P   P1        1.0  0.06092376942979172  0.6650047029834241  0.13590199284953997  1.0000
  P   P2        1.0  0.8700514698866755  0.8548877076245844  0.7458179942332208  1.0000
  H   H1        1.0  0.7669127290719189  0.3360462278360501  0.5842655475717038  1.0000
  H   H2        1.0  0.4958811216251888  0.028987382305786014  0.5713370232842863  1.0000
  H   H3        1.0  0.4914477323181927  0.7295665065466892  0.3857382128480822  1.0000
  H   H4        1.0  0.39552485127933323  0.14977119490504265  0.5521088798996061  1.0000
  H   H5        1.0  0.6406790349719813  0.007453480269759893  0.7043964028125629  1.0000
  H   H6        1.0  0.17329900502227247  0.8780598747543991  0.30573928530793637  1.0000
  H   H7        1.0  0.6123320574406534  0.43715164018794894  0.7051870779832825  1.0000
  H   H8        1.0  0.29191939847078174  0.8750738762319088  0.72347539907787  1.0000
  O   O1        1.0  0.14332654207464657  0.8844818012439646  0.4279078716499498  1.0000
  O   O2        1.0  0.5712380443328584  0.46011295006610453  0.8109516864351463  1.0000
  O   O3        1.0  0.6877221958784503  0.7264416843190702  0.7822889899398433  1.0000
  O   O4        1.0  0.7195428467239253  0.722338882740587  0.9510636948980391  1.0000
  O   O5        1.0  0.15386161440983415  0.8978127788286656  0.45624586701160297  1.0000
  O   O6        1.0  0.2812427872850094  0.2667515081120655  0.7379807335091755  1.0000
  O   O7        1.0  0.08273110752634238  0.011728069192031398  0.5143535563256592  1.0000
  O   O8        1.0  0.32213078712811694  0.7578463720274158  0.21586462255800143  1.0000
  O   O9        1.0  0.711623075980242  0.9802450845163548  0.8676076925621601  1.0000
  O   O10       1.0  0.9403794187674066  0.7866416246833978  0.3159999301278731  1.0000
  F   F1        1.0  0.7105899825692177  0.10673229664098471  0.016725247725844383  1.0000
  F   F2        1.0  0.4291417702916078  0.34430436737602577  0.6591150658205152  1.0000
data_image17
_chemical_formula_structural       Ca2P2H8O10F2
_chemical_formula_sum              "Ca2 P2 H8 O10 F2"
_cell_length_a       8.748547242261026
_cell_length_b       6.5292717768421165
_cell_length_c       5.804229554730758
_cell_angle_alpha    118.85637513684739
_cell_angle_beta     110.64940913561757
_cell_angle_gamma    94.26336680621436

_space_group_name_H-M_alt    "P 1"
_space_group_IT_number       1

loop_
  _space_group_symop_operation_xyz
  'x, y, z'

loop_
  _atom_site_type_symbol
  _atom_site_label
  _atom_site_symmetry_multiplicity
  _atom_site_fract_x
  _atom_site_fract_y
  _atom_site_fract_z
  _atom_site_occupancy
  Ca  Ca1       1.0  0.030582483595935628  0.7758531929648598  0.6163360974169336  1.0000
  Ca  Ca2       1.0  0.2810685433141771  0.5320143661374459  0.9696580305026146  1.0000
  P   P1        1.0  0.38583148701582104  0.31094811600632966  0.4576197140850127  1.0000
  P   P2        1.0  0.3201968017965555  0.7475080440053716  0.27029373217374086  1.0000
  H   H1        1.0  0.6663132283720188  0.25281840411480516  0.989772524102591  1.0000
  H   H2        1.0  0.036014453929965384  0.8251179393264465  0.22192201833240688  1.0000
  H   H3        1.0  0.2404707784880884  0.15907037610304542  0.5998298865742981  1.0000
  H   H4        1.0  0.40493067912757397  0.6096087847836316  0.4187529017799534  1.0000
  H   H5        1.0  0.913339099373843  0.6218683707993478  0.4525236551417038  1.0000
  H   H6        1.0  0.47568965260870755  0.8949125810759142  0.38545342336874455  1.0000
  H   H7        1.0  0.3935013844165951  0.7696405879687518  0.9228349295444787  1.0000
  H   H8        1.0  0.6498065625783056  0.1109406272880733  0.1848936912138015  1.0000
  O   O1        1.0  0.6967006223349017  0.20293862352264114  0.22436820633447496  1.0000
  O   O2        1.0  0.6084075937415037  0.15268447299604304  0.029267302539665252  1.0000
  O   O3        1.0  0.6284034249474644  0.23909448603080818  0.7160500673344359  1.0000
  O   O4        1.0  0.00862521494855173  0.6400034681428224  0.29757905239239335  1.0000
  O   O5        1.0  0.9370775539427996  0.12856159592047334  0.2574437446310185  1.0000
  O   O6        1.0  0.8198267515545012  0.790603318833746  0.16477901337202638  1.0000
  O   O7        1.0  0.816922706871992  0.1526963064679876  0.11841455059766304  1.0000
  O   O8        1.0  0.1089462172385538  0.1760962203843519  0.22222465617232956  1.0000
  O   O9        1.0  0.9681620144692715  0.033410796015232336  0.4810332996203215  1.0000
  O   O10       1.0  0.43793933550841757  0.9761550419498235  0.8543411164282588  1.0000
  F   F1        1.0  0.07831530924886465  0.47397717915009707  0.11737285554409027  1.0000
  F   F2        1.0  0.3560712712642271  0.5669192703207955  0.8959738569683395  1.0000
data_image18
_chemical_formula_structural       Ca2P2H8O10F2
_chemical_formula_sum              "Ca2 P2 H8 O10 F2"
_cell_length_a       8.748547242261026
_cell_length_b       6.5292717768421165
_cell_length_c       5.804229554730758
_cell_angle_alpha    118.85637513684739
_cell_angle_beta     110.64940913561757
_cell_angle_gamma    94.26336680621436

_space_group_name_H-M_alt    "P 1"
_space_group_IT_number       1

loop_
  _space_group_symop_operation_xyz
  'x, y, z'

loop_
  _atom_site_type_symbol
  _atom_site_label
  _atom_site_symmetry_multiplicity
  _atom_site_fract_x
  _atom_site_fract_y
  _atom_site_fract_z
  _atom_site_occupancy
  Ca  Ca1       1.0  0.894690410408657  0.14806940412381664  0.4672931150707882  1.0000
  Ca  Ca2       1.0  0.47461225196457235  0.18479373354421114  0.8468090667884098  1.0000
  P   P1        1.0  0.4557860787026584  0.5082860416732728  0.9098362203221768  1.0000
  P   P2        1.0  0.4654039619490504  0.2709278475958854  0.33314382610842586  1.0000
  H   H1        1.0  0.2991995553165907  0.536435240181163  0.6267426053527743  1.0000
  H   H2        1.0  0.4240753874910297  0.5266897130641155  0.36761620990000665  1.0000
  H   H3        1.0  0.8197377599426545  0.33230493910377845  0.9648101170314476  1.0000
  H   H4        1.0  0.4888297659344971  0.5836699516512454  0.05890713009284809  1.0000
  H   H5        1.0  0.7011715740518412  0.11182305472902954  0.9681387952296063  1.0000
  H   H6        1.0  0.0919131611008197  0.3897169050760567  0.536211023980286  1.0000
  H   H7        1.0  0.30481927283108234  0.9302242961712182  0.3341055546188727  1.0000
  H   H8        1.0  0.9162624073214829  0.9328181389719248  0.8695593937300146  1.0000
  O   O1        1.0  0.24136026033374947  0.8869691584841348  0.6621592111878272  1.0000
  O   O2        1.0  0.6098988521107458  0.9470076098223217  0.8066882512066513  1.0000
  O   O3        1.0  0.15506571771402378  0.9044021482659446  0.3875444360237452  1.0000
  O   O4        1.0  0.9910037901136093  0.3153443798655644  0.42467440431937575  1.0000
  O   O5        1.0  0.6146463640034199  0.1340249800705351  0.24788165173958987  1.0000
  O   O6        1.0  0.35468325792680844  0.8806818452576408  0.39242463058326393  1.0000
  O   O7        1.0  0.35340611937863287  0.20348617032868788  0.3067960865155328  1.0000
  O   O8        1.0  0.5884386436227942  0.6637515072943643  0.9050372135825455  1.0000
  O   O9        1.0  0.42631846123185824  0.49760511777276406  0.08233382589241955  1.0000
  O   O10       1.0  0.2107841959259531  0.26351625558163505  0.24726766831008717  1.0000
  F   F1        1.0  0.511989510152489  0.15306506166234612  0.8791417544707656  1.0000
  F   F2        1.0  0.2538231069338508  0.8669021307723597  0.8789620560128242  1.0000
data_image19
_chemical_formula_structural       Ca2P2H8O10F2
_chemical_formula_sum              "Ca2 P2 H8 O10 F2"
_cell_length_a       8.748547242261026
_cell_length_b       6.5292717768421165
_cell_length_c       5.804229554730758
_cell_angle_alpha    118.85637513684739
_cell_angle_beta     110.64940913561757
_cell_angle_gamma    94.26336680621436

_space_group_name_H-M_alt    "P 1"
_space_group_IT_number       1

loop_
  _space_group_symop_operation_xyz
  'x, y, z'

loop_
  _atom_site_type_symbol
  _atom_site_label
  _atom_site_symmetry_multiplicity
  _atom_site_fract_x
  _atom_site_fract_y
  _atom_site_fract_z
  _atom_site_occupancy
  Ca  Ca1       1.0  0.4402838600653922  0.06959874543827027  0.29936176075716503  1.0000
  Ca  Ca2       1.0  0.44999793153965584  0.9575942110313918  0.8153660934486879  1.0000
  P   P1        1.0  0.4970684959553182  0.6771021999884397  0.5552407372742891  1.0000
  P   P2        1.0  0.8751307229977101  0.8469060965580866  0.8599078981205821  1.0000
  H   H1        1.0  0.8068592099625675  0.6413586896378547  0.45391799963545054  1.0000
  H   H2        1.0  0.7635371874494012  0.03512946970295161  0.32746838172897696  1.0000
  H   H3        1.0  0.6555418744101189  0.6000843503279611  0.990094714332372  1.0000
  H   H4        1.0  0.9838580375071615  0.7712198302615434  0.7786551310564391  1.0000
  H   H5        1.0  0.21526938719762256  0.61670754221268  0.905723569332622  1.0000
  H   H6        1.0  0.2778704254887998  0.9670119689544663  0.3207223583594896  1.0000
  H   H7        1.0  0.0672738931607455  0.9232471107970923  0.3263709986349568  1.0000
  H   H8        1.0  0.32504565303679556  0.8776222323067486  0.3894784729927778  1.0000
  O   O1        1.0  0.768450674640917  0.5670725098461844  0.645546093925077  1.0000
  O   O2        1.0  0.6859028353519534  0.8740931352658663  0.3932180120027624  1.0000
  O   O3        1.0  0.8167118229030166  0.7168011496542022  0.23360433979541995  1.0000
  O   O4        1.0  0.6341475090011954  0.060296189156360924  0.07365145441144705  1.0000
  O   O5        1.0  0.07016777968965471  0.11793808493530378  0.6469690128578804  1.0000
  O   O6        1.0  0.23470168618041498  0.67997379830922  0.5795121686533093  1.0000
  O   O7        1.0  0.11636415591055993  0.737703937367769  0.7782966902450426  1.0000
  O   O8        1.0  0.9279586417105747  0.1998358746059239  0.15866004608687945  1.0000
  O   O9        1.0  0.4983523235823668  0.2502792944724206  0.7765839706853512  1.0000
  O   O10       1.0  0.47504157141884207  0.884351360371511  0.21246580155275296  1.0000
  F   F1        1.0  0.9800737488549203  0.036358595942147076  0.8283971473574638  1.0000
  F   F2        1.0  0.08561243745498359  0.7319171450799331  0.5466828719945624  1.0000
data_image20
_chemical_formula_structural       Ca2P2H8O10F2
_chemical_formula_sum              "Ca2 P2 H8 O10 F2"
_cell_length_a       8.748547242261026
_cell_length_b       6.5292717768421165
_cell_length_c       5.804229554730758
_cell_angle_alpha    118.85637513684739
_cell_angle_beta     110.64940913561757
_cell_angle_gamma    94.26336680621436

_space_group_name_H-M_alt    "P 1"
_space_group_IT_number       1

loop_
  _space_group_symop_operation_xyz
  'x, y, z'

loop_
  _atom_site_type_symbol
  _atom_site_label
  _atom_site_symmetry_multiplicity
  _atom_site_fract_x
  _atom_site_fract_y
  _atom_site_fract_z
  _atom_site_occupancy
  Ca  Ca1       1.0  0.3208351603097981  0.5818158031179337  0.4206066162150819  1.0000
  Ca  Ca2       1.0  0.5816491889054305  0.9882850869762478  0.11468601090746233  1.0000
  P   P1        1.0  0.009805156732909381  0.5605517050717026  0.151148094329983  1.0000
  P   P2        1.0  0.23124176263809204  0.09600101667456329  0.8231678139418364  1.0000
  H   H1        1.0  0.23765329308889704  0.594363967422396  0.8509452071739361  1.0000
  H   H2        1.0  0.7409904441374238  0.3438194416812621  0.6486114752478898  1.0000
  H   H3        1.0  0.9736119236331433  0.9662599264411256  0.8261248706839979  1.0000
  H   H4        1.0  0.486241816310212  0.05104744294658303  0.9926702646771446  1.0000
  H   H5        1.0  0.6512855996770668  0.8932161468546838  0.7514202044112608  1.0000
  H   H6        1.0  0.9310090073850006  0.7818851035553962  0.33634489675750956  1.0000
  H   H7        1.0  0.807379356585443  0.6035409744363278  0.5139630548655987  1.0000
  H   H8        1.0  0.12731723580509424  0.0012227683328092098  0.2732890413608402  1.0000
  O   O1        1.0  0.5099856417546107  0.24511589444591664  0.2829967982688686  1.0000
  O   O2        1.0  0.5848687104698911  0.3855703034787439  0.9001353455532808  1.0000
  O   O3        1.0  0.24628570163622499  0.09468140866374597  0.2245811378234066  1.0000
  O   O4        1.0  0.03692884306656197  0.049594102310948074  0.6803664898034185  1.0000
  O   O5        1.0  0.160168104339391  0.5842297180788592  0.365900625649374  1.0000
  O   O6        1.0  0.20253141414104903  0.1280267809634097  0.7793363803066313  1.0000
  O   O7        1.0  0.7360761292657116  0.8599016788066365  0.6044232307176571  1.0000
  O   O8        1.0  0.2178527298528934  0.01599057938437909  0.031023824238218367  1.0000
  O   O9        1.0  0.7459844862096361  0.3163102519392851  0.9918287668715493  1.0000
  O   O10       1.0  0.961194719873447  0.26272459398023784  0.06384767612325959  1.0000
  F   F1        1.0  0.26112764212302864  0.6057980654295534  0.7967010783031583  1.0000
  F   F2        1.0  0.4447874160250649  0.8227411203552037  0.2298437703284435  1.0000
data_image21
_chemical_formula_structural       Ca2P2H8O10F2
_chemical_formula_sum              "Ca2 P2 H8 O10 F2"
_cell_length_a       8.748547242261026
_cell_length_b       6.5292717768421165
_cell_length_c       5.804229554730758
_cell_angle_alpha    118.85637513684739
_cell_angle_beta     110.64940913561757
_cell_angle_gamma    94.26336680621436

_space_group_name_H-M_alt    "P 1"
_space_group_IT_number       1

loop_
  _space_group_symop_operation_xyz
  'x, y, z'

loop_
  _atom_site_type_symbol
  _atom_site_label
  _atom_site_symmetry_multiplicity
  _atom_site_fract_x
  _atom_site_fract_y
  _atom_site_fract_z
  _atom_site_occupancy
  Ca  Ca1       1.0  0.7842897485534195  0.8872364805720281  0.16733150955406018  1.0000
  Ca  Ca2       1.0  0.32935898008872755  0.8390785636438522  0.08020236039010342  1.0000
  P   P1        1.0  0.5890260473825037  0.07058050949126482  0.7705840859562159  1.0000
  P   P2        1.0  0.6323971222154796  0.5926017008023337  0.9513378436677158  1.0000
  H   H1        1.0  0.22422888472920022  0.843357122852467  0.5824900079751387  1.0000
  H   H2        1.0  0.20652295416130073  0.9264880108530633  0.3672954111825675  1.0000
  H   H3        1.0  0.6294757963623852  0.9726641598681454  0.42097987968008965  1.0000
  H   H4        1.0  0.18936975579708815  0.8341847523115575  0.4387495873379521  1.0000
  H   H5        1.0  0.23045015086972853  0.08155095693655312  0.4040610756492242  1.0000
  H   H6        1.0  0.8653177195228636  0.9265798898413777  0.4189325912448112  1.0000
  H   H7        1.0  0.31181364064104855  0.7305061130318791  0.08626837376505136  1.0000
  H   H8        1.0  0.45999325392767787  0.4106229590252042  0.006347278133034706  1.0000
  O   O1        1.0  0.24186688296322245  0.7977871650073212  0.40862765722704353  1.0000
  O   O2        1.0  0.6842377550747187  0.3608917992678471  0.4369110914922203  1.0000
  O   O3        1.0  0.8364866134070326  0.29338735103374347  0.4502531567704864  1.0000
  O   O4        1.0  0.5915613551333081  0.008914842153899372  0.9825242643710226  1.0000
  O   O5        1.0  0.32553749717772007  0.9965614685206674  0.13550191503600217  1.0000
  O   O6        1.0  7.384422860923223e-05  0.6205740235454869  0.3949142110068351  1.0000
  O   O7        1.0  0.9053089024819201  0.09629293711623177  0.6724206786020659  1.0000
  O   O8        1.0  0.24762042009388097  0.9480620305985212  0.32746220036642626  1.0000
  O   O9        1.0  0.6983263235888444  0.10056486313442292  0.3520199645063258  1.0000
  O   O10       1.0  0.6816064678023395  0.1598274194257101  0.47992328615509905  1.0000
  F   F1        1.0  0.5589030021801591  0.11120980454143137  0.6080088187009096  1.0000
  F   F2        1.0  0.4761955725844018  0.11412689427379519  0.7095972568495199  1.0000
data_image22
_chemical_formula_structural       Ca2P2H8O10F2
_chemical_formula_sum              "Ca2 P2 H8 O10 F2"
_cell_length_a       8.748547242261026
_cell_length_b       6.5292717768421165
_cell_length_c       5.804229554730758
_cell_angle_alpha    118.85637513684739
_cell_angle_beta     110.64940913561757
_cell_angle_gamma    94.26336680621436

_space_group_name_H-M_alt    "P 1"
_space_group_IT_number       1

loop_
  _space_group_symop_operation_xyz
  'x, y, z'

loop_
  _atom_site_type_symbol
  _atom_site_label
  _atom_site_symmetry_multiplicity
  _atom_site_fract_x
  _atom_site_fract_y
  _atom_site_fract_z
  _atom_site_occupancy
  Ca  Ca1       1.0  0.7034001657193585  0.6128604688274208  0.854260768101085  1.0000
  Ca  Ca2       1.0  0.21374315234425012  0.642657921416685  0.5590622628806159  1.0000
  P   P1        1.0  0.4057694098446518  0.23827682039700449  0.5496839133556932  1.0000
  P   P2        1.0  0.10450810194015503  0.4036665705498308  0.7309809597209096  1.0000
  H   H1        1.0  0.6827770001928002  0.48441659775562584  0.6492618494667113  1.0000
  H   H2        1.0  0.2937737621012957  0.35338062240043655  0.7776897414587438  1.0000
  H   H3        1.0  0.03311283315997571  0.19389726922963746  0.6677193091018125  1.0000
  H   H4        1.0  0.9645528986584395  0.1986504360102117  0.6599858914269134  1.0000
  H   H5        1.0  0.9635237061229418  0.1305952814873308  0.118771200068295  1.0000
  H   H6        1.0  0.48128762445412576  0.9669775075744838  0.010027064985479228  1.0000
  H   H7        1.0  0.3558853608556092  0.802728955168277  0.8952738924417645  1.0000
  H   H8        1.0  0.8858906748937443  0.41866125725209713  0.7146015763282776  1.0000
  O   O1        1.0  0.9379198632705084  0.20270486650406383  0.12341513849969488  1.0000
  O   O2        1.0  0.616551240102126  0.5440429307927843  0.6006101075254264  1.0000
  O   O3        1.0  0.14921036160376389  0.8055794750107452  0.030408464546781033  1.0000
  O   O4        1.0  0.036951360205421224  0.08329775824677199  0.14186576893553138  1.0000
  O   O5        1.0  0.5939686554484069  0.4872029604157433  0.4916916590736946  1.0000
  O   O6        1.0  0.46726117351136054  0.8960289510723669  0.3586161963175982  1.0000
  O   O7        1.0  0.029629875964019448  0.33535238285548985  0.2954052180357394  1.0000
  O   O8        1.0  0.6048780994460685  0.4559616429032758  0.8013736426073592  1.0000
  O   O9        1.0  0.07555996203882387  0.6790967920533149  0.6232179814542178  1.0000
  O   O10       1.0  0.3611524898224161  0.177968176532886  0.9373993184999563  1.0000
  F   F1        1.0  0.39194462075829506  0.18935475940816104  0.20203625969588757  1.0000
  F   F2        1.0  0.2589355318341404  0.9239492566557601  0.9427363122813404  1.0000
data_image23
_chemical_formula_structural       Ca2P2H8O10F2
_chemical_formula_sum              "Ca2 P2 H8 O10 F2"
_cell_length_a       8.748547242261026
_cell_length_b       6.5292717768421165
_cell_length_c       5.804229554730758
_cell_angle_alpha    118.85637513684739
_cell_angle_beta     110.64940913561757
_cell_angle_gamma    94.26336680621436

_space_group_name_H-M_alt    "P 1"
_space_group_IT_number       1

loop_
  _space_group_symop_operation_xyz
  'x, y, z'

loop_
  _atom_site_type_symbol
  _atom_site_label
  _atom_site_symmetry_multiplicity
  _atom_site_fract_x
  _atom_site_fract_y
  _atom_site_fract_z
  _atom_site_occupancy
  Ca  Ca1       1.0  0.8236493898439221  0.9259014129638672  0.4153403602540493  1.0000
  Ca  Ca2       1.0  0.704475202888716  0.44982597744092345  0.2400339723099023  1.0000
  P   P1        1.0  0.32483621675055474  0.580423861509189  0.34338528802618384  1.0000
  P   P2        1.0  0.13173507619649172  0.3413542000344023  0.7765470137819648  1.0000
  H   H1        1.0  0.8710541110331178  0.714635569951497  0.99327367474325  1.0000
  H   H2        1.0  0.11284813859674614  0.36859890702180564  0.8461705895606428  1.0000
  H   H3        1.0  0.6839928602566943  0.1734020593285095  0.14289320120587945  1.0000
  H   H4        1.0  0.14707303023897111  0.34233154240064323  0.6643481688806787  1.0000
  H   H5        1.0  0.9204493358993204  0.1442047283053398  0.5871899721678346  1.0000
  H   H6        1.0  0.06975273229181767  0.02303215442225337  0.36274982534814626  1.0000
  H   H7        1.0  0.6191178689477965  0.918867219472304  0.17370113683864474  1.0000
  H   H8        1.0  0.8519927081651986  0.6369872502982616  0.6371127384481952  1.0000
  O   O1        1.0  0.797101593863772  0.4119038561475463  0.8336760428719572  1.0000
  O   O2        1.0  0.2947901960906165  0.7680850192264188  0.9778998840920394  1.0000
  O   O3        1.0  0.4216888155351626  0.04406740766717121  0.9355624497402459  1.0000
  O   O4        1.0  0.820364655693993  0.4038413497619331  0.28573816851712763  1.0000
  O   O5        1.0  0.4306630634237081  0.8645487662870437  0.8069887215679046  1.0000
  O   O6        1.0  0.7605479238154658  0.8105887162382714  0.48460909631103277  1.0000
  O   O7        1.0  0.6775732754904311  0.11176924579194747  0.005796521705633495  1.0000
  O   O8        1.0  0.4089925882872194  0.7584355120779946  0.6132004745886661  1.0000
  O   O9        1.0  0.5661965947292629  0.37157839106839674  0.1277670621566358  1.0000
  O   O10       1.0  0.8099714045529254  0.6205016462772619  0.9793619920310448  1.0000
  F   F1        1.0  0.2786028333939612  0.6278992164880037  0.9202780248597264  1.0000
  F   F2        1.0  0.886958186456468  0.8544754498871043  0.6640976960770786  1.0000
data_image24
_chemical_formula_structural       Ca2P2H8O10F2
_chemical_formula_sum              "Ca2 P2 H8 O10 F2"
_cell_length_a       8.748547242261026
_cell_length_b       6.5292717768421165
_cell_length_c       5.804229554730758
_cell_angle_alpha    118.85637513684739
_cell_angle_beta     110.64940913561757
_cell_angle_gamma    94.26336680621436

_space_group_name_H-M_alt    "P 1"
_space_group_IT_number       1

loop_
  _space_group_symop_operation_xyz
  'x, y, z'

loop_
  _atom_site_type_symbol
  _atom_site_label
  _atom_site_symmetry_multiplicity
  _atom_site_fract_x
  _atom_site_fract_y
  _atom_site_fract_z
  _atom_site_occupancy
  Ca  Ca1       1.0  0.5392231555888429  0.5747770094312727  0.6963515453971922  1.0000
  Ca  Ca2       1.0  0.594522358616814  0.9798913935665041  0.0034245140850543976  1.0000
  P   P1        1.0  0.3566396776586771  0.8497014304157346  0.08253617282025516  1.0000
  P   P2        1.0  0.357544366735965  0.7067727469839156  0.2879777429625392  1.0000
  H   H1        1.0  0.7471341299096821  0.6593077431898564  0.019985747057944536  1.0000
  H   H2        1.0  0.3830601455993019  0.30592438171152025  0.3066421616822481  1.0000
  H   H3        1.0  0.9587631663307548  0.07497445895569399  0.7144569008378312  1.0000
  H   H4        1.0  0.8400670497212559  0.43156340811401606  0.739603610301856  1.0000
  H   H5        1.0  0.9054731006472139  0.2077571409754455  0.01339647511485964  1.0000
  H   H6        1.0  0.7482135482132435  0.06333036115393043  0.20186366769485176  1.0000
  H   H7        1.0  0.0165321504464373  0.4692277042195201  0.447137062670663  1.0000
  H   H8        1.0  0.15411229548044503  0.9484528871253133  0.350199596490711  1.0000
  O   O1        1.0  0.8700732675097242  0.768024468125077  0.6393689944088692  1.0000
  O   O2        1.0  0.7648677603392571  0.17221923873876221  0.08722218989714747  1.0000
  O   O3        1.0  0.14813110606337432  0.8576136091724038  0.8350281723542139  1.0000
  O   O4        1.0  0.12181596842128783  0.004978876677341759  0.12166105234064162  1.0000
  O   O5        1.0  0.8623599640559405  0.8320379453944042  0.03672090046165977  1.0000
  O   O6        1.0  0.6796180650853785  0.4483886911184527  0.8368320525623858  1.0000
  O   O7        1.0  0.7171131539798807  0.4490703944757115  0.8370132448853838  1.0000
  O   O8        1.0  0.5661652081325883  0.2155723568284884  0.6561946694273502  1.0000
  O   O9        1.0  0.4771160241944017  0.15625218016600684  0.02111600830903626  1.0000
  O   O10       1.0  0.4750691453300533  0.6968181663396535  0.33542143275553826  1.0000
  F   F1        1.0  0.5496494269464165  0.48981800582259893  0.34023656230419874  1.0000
  F   F2        1.0  0.3431850900524296  0.008240235154516995  0.5979663069592789  1.0000
data_image25
_chemical_formula_structural       Ca2P2H8O10F2
_chemical_formula_sum              "Ca2 P2 H8 O10 F2"
_cell_length_a       8.748547242261026
_cell_length_b       6.5292717768421165
_cell_length_c       5.804229554730758
_cell_angle_alpha    118.85637513684739
_cell_angle_beta     110.64940913561757
_cell_angle_gamma    94.26336680621436

_space_group_name_H-M_alt    "P 1"
_space_group_IT_number       1

loop_
  _space_group_symop_operation_xyz
  'x, y, z'

loop_
  _atom_site_type_symbol
  _atom_site_label
  _atom_site_symmetry_multiplicity
  _atom_site_fract_x
  _atom_site_fract_y
  _atom_site_fract_z
  _atom_site_occupancy
  Ca  Ca1       1.0  0.13811138190794736  0.3785849043633789  0.5303333704359829  1.0000
  Ca  Ca2       1.0  0.0013438715832307935  0.6409251934383065  0.570730549748987  1.0000
  P   P1        1.0  0.6171785298502073  0.03383651957847178  0.37969510070979595  1.0000
  P   P2        1.0  0.02591441385447979  0.6072856717510149  0.31561209447681904  1.0000
  H   H1        1.0  0.11060612317805862  0.8225555940298364  0.6375433040084317  1.0000
  H   H2        1.0  0.2977406562422402  0.4653712957224343  0.3463805210776627  1.0000
  H   H3        1.0  0.02512438513804227  0.2071801910060458  0.09060301422141492  1.0000
  H   H4        1.0  0.976887351134792  0.9259222634136677  0.9006080264807679  1.0000
  H   H5        1.0  0.43891725850699004  0.4161828006617725  0.3659575507044792  1.0000
  H   H6        1.0  0.3287417540559545  0.28445582650601864  0.469226743793115  1.0000
  H   H7        1.0  0.482101772679016  0.7980215693823993  0.331062424229458  1.0000
  H   H8        1.0  0.9724931005621329  0.2886156062595546  0.15784424054436386  1.0000
  O   O1        1.0  0.1370791375211411  0.2529494423069991  0.8467736995880841  1.0000
  O   O2        1.0  0.953055854071863  0.38687267241766676  0.03173427941510454  1.0000
  O   O3        1.0  0.8652944408240728  0.027791065513156354  0.148575896571856  1.0000
  O   O4        1.0  0.15005600481526926  0.9704255112446845  0.3960798983462155  1.0000
  O   O5        1.0  0.4640715504065156  0.3430745207006112  0.6362652967945905  1.0000
  O   O6        1.0  0.5921470155590214  0.7262130761228036  0.5948945946292952  1.0000
  O   O7        1.0  0.9829424319614191  0.04501788382185623  0.8501908210755573  1.0000
  O   O8        1.0  0.9185314741189359  0.14367870491696522  0.35669244383461773  1.0000
  O   O9        1.0  0.7371124512210372  0.21667641633803214  0.38572830189878005  1.0000
  O   O10       1.0  0.4132348142884439  0.2454045699996641  0.3991749945707852  1.0000
  F   F1        1.0  0.6566625041887164  0.5041150861652568  0.6472937427461147  1.0000
  F   F2        1.0  0.8978661771398038  0.7347684790147468  0.7928243195055984  1.0000
data_image26
_chemical_formula_structural       Ca2P2H8O10F2
_chemical_formula_sum              "Ca2 P2 H8 O10 F2"
_cell_length_a       8.748547242261026
_cell_length_b       6.5292717768421165
_cell_length_c       5.804229554730758
_cell_angle_alpha    118.85637513684739
_cell_angle_beta     110.64940913561757
_cell_angle_gamma    94.26336680621436

_space_group_name_H-M_alt    "P 1"
_space_group_IT_number       1

loop_
  _space_group_symop_operation_xyz
  'x, y, z'

loop_
  _atom_site_type_symbol
  _atom_site_label
  _atom_site_symmetry_multiplicity
  _atom_site_fract_x
  _atom_site_fract_y
  _atom_site_fract_z
  _atom_site_occupancy
  Ca  Ca1       1.0  0.10605955554638058  0.9280276743229479  0.637017787899822  1.0000
  Ca  Ca2       1.0  0.15753475378733128  0.128677747445181  0.36554994294419885  1.0000
  P   P1        1.0  0.7987831162754446  0.6324318849947304  0.519897221820429  1.0000
  P   P2        1.0  0.23034205590374768  0.07943804759997874  0.9028278291225433  1.0000
  H   H1        1.0  0.9034807183288649  0.6959326701471582  0.8183243421372026  1.0000
  H   H2        1.0  0.2792334904515883  0.9111351389203719  0.4104079743847251  1.0000
  H   H3        1.0  0.29544694523792714  0.8970068666094448  0.6532585353124887  1.0000
  H   H4        1.0  0.2658324991352856  0.3079838177654892  0.6693251534597948  1.0000
  H   H5        1.0  0.5076812887418782  0.11702334857545793  0.5134752814192325  1.0000
  H   H6        1.0  0.2896680167177692  0.7197601592633873  0.8554609795100987  1.0000
  H   H7        1.0  0.8858518708730116  0.5512593863531947  0.13804608839564025  1.0000
  H   H8        1.0  0.42170572141185403  0.10425257496535778  0.5728635569103062  1.0000
  O   O1        1.0  0.3564556631317828  0.18444325000746176  0.6314828382965061  1.0000
  O   O2        1.0  0.19747974870551843  0.6964593825105112  0.7822996869399503  1.0000
  O   O3        1.0  0.792251715392922  0.94721241411753  0.3164919947157614  1.0000
  O   O4        1.0  0.7540884825575631  0.8935100681846961  0.32439284725114703  1.0000
  O   O5        1.0  0.05878680315800011  0.15966475935420021  0.14206511017982848  1.0000
  O   O6        1.0  0.09944332428494818  0.5113009273482021  0.4002819238230586  1.0000
  O   O7        1.0  0.24786389191285707  0.34329256499768235  0.4990469869298977  1.0000
  O   O8        1.0  0.0402083477092674  0.08720888401148841  0.5212392832327168  1.0000
  O   O9        1.0  0.013304015425092075  0.22610579637876072  0.728063872018538  1.0000
  O   O10       1.0  0.95327082190488  0.7982421844208147  0.3130559819328482  1.0000
  F   F1        1.0  0.7824770731385797  0.727930428343825  0.9039913080632687  1.0000
  F   F2        1.0  0.41135463706450537  0.896723500918597  0.4397201838437468  1.0000
data_image27
_chemical_formula_structural       Ca2P2H8O10F2
_chemical_formula_sum              "Ca2 P2 H8 O10 F2"
_cell_length_a       8.748547242261026
_cell_length_b       6.5292717768421165
_cell_length_c       5.804229554730758
_cell_angle_alpha    118.85637513684739
_cell_angle_beta     110.64940913561757
_cell_angle_gamma    94.26336680621436

_space_group_name_H-M_alt    "P 1"
_space_group_IT_number       1

loop_
  _space_group_symop_operation_xyz
  'x, y, z'

loop_
  _atom_site_type_symbol
  _atom_site_label
  _atom_site_symmetry_multiplicity
  _atom_site_fract_x
  _atom_site_fract_y
  _atom_site_fract_z
  _atom_site_occupancy
  Ca  Ca1       1.0  0.3087749833939597  0.15880586300045252  0.631472148001194  1.0000
  Ca  Ca2       1.0  0.8999050996499136  0.018123617628589272  0.5711515345610678  1.0000
  P   P1        1.0  0.3530021507758647  0.933279900578782  0.9115414426196367  1.0000
  P   P2        1.0  0.4234949320089072  0.48756511171814054  0.768959519919008  1.0000
  H   H1        1.0  0.04374517576798098  0.48419724800623953  0.38703586731571704  1.0000
  H   H2        1.0  0.34741162187128793  0.27210084060789086  0.48843937437050045  1.0000
  H   H3        1.0  0.8708412338746712  0.9162022133095888  0.8817664461676031  1.0000
  H   H4        1.0  0.298069104552269  0.8151807081885636  0.5206835325225256  1.0000
  H   H5        1.0  0.9646860167995328  0.44016570458188653  0.960568075068295  1.0000
  H   H6        1.0  0.9787318570888601  0.8921756658237427  0.25656182621605694  1.0000
  H   H7        1.0  0.26275168848223984  0.6376938589382917  0.2497898698784411  1.0000
  H   H8        1.0  0.38660473516210914  0.9524781815707684  0.4226493574678898  1.0000
  O   O1        1.0  0.3119666232360032  0.5862915685866028  0.28567088913405314  1.0000
  O   O2        1.0  0.8988933492219076  0.9296965720423032  0.1280277583609859  1.0000
  O   O3        1.0  0.8072452097985661  0.5151893451693468  0.37568419316085055  1.0000
  O   O4        1.0  0.8887005805445369  0.30177465779706836  0.4205898651853204  1.0000
  O   O5        1.0  0.499330788385123  0.3000645220745355  0.77317328096251  1.0000
  O   O6        1.0  0.5563009680263349  0.09327803502674215  0.5186437676311471  1.0000
  O   O7        1.0  0.41387794198817573  0.3692437518329825  0.7865625694503251  1.0000
  O   O8        1.0  0.13747192818846088  0.6203343668021262  0.8458524658053648  1.0000
  O   O9        1.0  0.6543556501856074  0.6337944232692223  0.9405010085574759  1.0000
  O   O10       1.0  0.3405956212154706  0.3461430698662298  0.43967696199251805  1.0000
  F   F1        1.0  0.6846393439918756  0.536379731609486  0.7287693228572607  1.0000
  F   F2        1.0  0.5094381525414065  0.06936443585436791  0.19691161281662062  1.0000
data_image28
_chemical_formula_structural       Ca2P2H8O10F2
_chemical_formula_sum              "Ca2 P2 H8 O10 F2"
_cell_length_a       8.748547242261026
_cell_length_b       6.5292717768421165
_cell_length_c       5.804229554730758
_cell_angle_alpha    118.85637513684739
_cell_angle_beta     110.64940913561757
_cell_angle_gamma    94.26336680621436

_space_group_name_H-M_alt    "P 1"
_space_group_IT_number       1

loop_
  _space_group_symop_operation_xyz
  'x, y, z'

loop_
  _atom_site_type_symbol
  _atom_site_label
  _atom_site_symmetry_multiplicity
  _atom_site_fract_x
  _atom_site_fract_y
  _atom_site_fract_z
  _atom_site_occupancy
  Ca  Ca1       1.0  0.4063251750776544  0.7810217987280339  0.9461551290005445  1.0000
  Ca  Ca2       1.0  0.11640887102112174  0.7434471433516592  0.5258378712460399  1.0000
  P   P1        1.0  0.5184536408632994  0.8780662454664707  0.6954154132399708  1.0000
  P   P2        1.0  0.9387095996644348  0.8315911238314584  0.15532516967505217  1.0000
  H   H1        1.0  0.8092672573184245  0.4338146961526945  0.03613080538343638  1.0000
  H   H2        1.0  0.6672054843365913  0.5554147586462932  0.2131122057326138  1.0000
  H   H3        1.0  0.32768795161973685  0.3464708091196371  0.8109079808928072  1.0000
  H   H4        1.0  0.5577222728170455  0.22437278646975756  0.48702345456695184  1.0000
  H   H5        1.0  0.4616044639842585  0.49888656847178936  0.05160268454346806  1.0000
  H   H6        1.0  0.2887067620176822  0.07176852319389582  0.08169076056219637  1.0000
  H   H7        1.0  0.1457425820408389  0.39936454920098186  0.05672521563246846  1.0000
  H   H8        1.0  0.6537269407417625  0.5168346180580556  0.761792495730333  1.0000
  O   O1        1.0  0.8662971172980178  0.058533710427582264  0.4924259918334428  1.0000
  O   O2        1.0  0.5175151579169324  0.577699428453343  0.3662153894911171  1.0000
  O   O3        1.0  0.7214583298482466  0.2716127003659494  0.27488350588828325  1.0000
  O   O4        1.0  0.8097053544770461  0.2558373499196023  0.46136419172398746  1.0000
  O   O5        1.0  0.7365193746518344  0.8008281956426799  0.5651541906700004  1.0000
  O   O6        1.0  0.5647796784614911  0.062247970374301076  0.8629220694419928  1.0000
  O   O7        1.0  0.8344571193738375  0.4585780366905965  0.7577432881116692  1.0000
  O   O8        1.0  0.991436418829835  0.5738163397181779  0.4591744553181343  1.0000
  O   O9        1.0  0.046891742778825574  0.7965074890431652  0.09168544190833927  1.0000
  O   O10       1.0  0.8994950264022918  0.8826072962401668  0.4072158215712989  1.0000
  F   F1        1.0  0.10139413829892874  0.2860002516536042  0.4270249903202057  1.0000
  F   F2        1.0  0.7839136762777343  0.4109463164350018  0.11902698950143531  1.0000
data_image29
_chemical_formula_structural       Ca2P2H8O10F2
_chemical_formula_sum              "Ca2 P2 H8 O10 F2"
_cell_length_a       8.748547242261026
_cell_length_b       6.5292717768421165
_cell_length_c       5.804229554730758
_cell_angle_alpha    118.85637513684739
_cell_angle_beta     110.64940913561757
_cell_angle_gamma    94.26336680621436

_space_group_name_H-M_alt    "P 1"
_space_group_IT_number       1

loop_
  _space_group_symop_operation_xyz
  'x, y, z'

loop_
  _atom_site_type_symbol
  _atom_site_label
  _atom_site_symmetry_multiplicity
  _atom_site_fract_x
  _atom_site_fract_y
  _atom_site_fract_z
  _atom_site_occupancy
  Ca  Ca1       1.0  0.1905150250531733  0.5612480861600488  0.9060024013742805  1.0000
  Ca  Ca2       1.0  0.6879272018559277  0.5327402236871421  0.1081783976405859  1.0000
  P   P1        1.0  0.645301676588133  0.7529849933926016  0.9339867017697543  1.0000
  P   P2        1.0  0.8074565336573869  0.33945152640808374  0.7579653509892523  1.0000
  H   H1        1.0  0.012916760111693293  0.6793945166282356  0.6822839719243348  1.0000
  H   H2        1.0  0.9387696689955192  0.28763664715734194  0.4062282624654472  1.0000
  H   H3        1.0  0.6735154550988227  0.6952288171596592  0.4493802322540432  1.0000
  H   H4        1.0  0.98585419007577  0.7329776086844504  0.3618808177416213  1.0000
  H   H5        1.0  0.7549062934995163  0.7006247353274375  0.7983598207356408  1.0000
  H   H6        1.0  0.9290709454216994  0.590057652676478  0.31243347097188234  1.0000
  H   H7        1.0  0.21849483391270041  0.6053687615785748  0.9558249588590115  1.0000
  H   H8        1.0  0.28327945910859853  0.6683586742728949  0.1038578029256314  1.0000
  O   O1        1.0  0.7054219845012994  0.7563998015539255  0.7170149985759053  1.0000
  O   O2        1.0  0.7659612908464624  0.619038095115684  0.7567385754591669  1.0000
  O   O3        1.0  0.3423143190157134  0.9049429484875873  0.4523952646413818  1.0000
  O   O4        1.0  0.5261413320549764  0.523547544144094  0.596019922522828  1.0000
  O   O5        1.0  0.8626415969338268  0.8353248111670837  0.4122579307440901  1.0000
  O   O6        1.0  0.0600555559140048  0.26057656927150674  0.3378667794750072  1.0000
  O   O7        1.0  0.029350462893489748  0.26228439732221887  0.5068488036904455  1.0000
  O   O8        1.0  0.7621990486950381  0.6486194863682613  0.6166710915858857  1.0000
  O   O9        1.0  0.5777576244072407  0.6999814762705228  0.7822901171566627  1.0000
  O   O10       1.0  0.519603943634138  0.3411760946328286  0.6203696826996747  1.0000
  F   F1        1.0  0.5325644409749657  0.4233517894754186  0.27234097104519606  1.0000
  F   F2        1.0  0.6875585463130847  0.9699247102253139  0.587238751235418  1.0000
data_image30
_chemical_formula_structural       Ca2P2H8O10F2
_chemical_formula_sum              "Ca2 P2 H8 O10 F2"
_cell_length_a       8.748547242261026
_cell_length_b       6.5292717768421165
_cell_length_c       5.804229554730758
_cell_angle_alpha    118.85637513684739
_cell_angle_beta     110.64940913561757
_cell_angle_gamma    94.26336680621436

_space_group_name_H-M_alt    "P 1"
_space_group_IT_number       1

loop_
  _space_group_symop_operation_xyz
  'x, y, z'

loop_
  _atom_site_type_symbol
  _atom_site_label
  _atom_site_symmetry_multiplicity
  _atom_site_fract_x
  _atom_site_fract_y
  _atom_site_fract_z
  _atom_site_occupancy
  Ca  Ca1       1.0  0.6741339105647057  0.048142290906980634  0.35548018757253885  1.0000
  Ca  Ca2       1.0  0.7982242242433131  0.5241579110734165  0.737181450240314  1.0000
  P   P1        1.0  0.10609637200832367  0.7249614698812366  0.04617823753505945  1.0000
  P   P2        1.0  0.5045484596630558  0.5502900916617364  0.7779995105229318  1.0000
  H   H1        1.0  0.8981215792009607  0.17189685779158026  0.93680168769788  1.0000
  H   H2        1.0  0.39261156039719936  0.4180509902546419  0.8344113149214536  1.0000
  H   H3        1.0  0.7137668178183958  0.7826791883562692  0.8254025701899081  1.0000
  H   H4        1.0  0.5429038982838392  0.12941496376879513  0.6446626400575042  1.0000
  H   H5        1.0  0.5025024656206369  0.27923379465937614  0.2159209803212434  1.0000
  H   H6        1.0  0.17931767797563225  0.7727561536012217  0.4611947196535766  1.0000
  H   H7        1.0  0.6777326404117048  0.7121070704888552  0.3660023317206651  1.0000
  H   H8        1.0  0.9880279706558213  0.7860057009384036  0.7207607816671953  1.0000
  O   O1        1.0  0.7176985366968438  0.09211599515401758  0.8316773838159861  1.0000
  O   O2        1.0  0.013188890014134813  0.8067540436750278  0.17297284544474678  1.0000
  O   O3        1.0  0.4417327702976763  0.6127771004103124  0.38024128117831424  1.0000
  O   O4        1.0  0.2618937008373905  0.0731549805495888  0.047296588541939855  1.0000
  O   O5        1.0  0.6064649508334696  0.6408258609008044  0.0023752880515530705  1.0000
  O   O6        1.0  0.10511186689109309  0.35089829668868333  0.28081407357240096  1.0000
  O   O7        1.0  0.8901389356760774  0.5366501023527235  0.21448139002859534  1.0000
  O   O8        1.0  0.6125115077447845  0.15596806071698666  0.0375378628668841  1.0000
  O   O9        1.0  0.9391150762166944  0.18992482810608635  0.7872152926283889  1.0000
  O   O10       1.0  0.7970891117802239  0.028623742720810696  0.34644658301840536  1.0000
  F   F1        1.0  0.7988401192706078  0.3300698578823358  0.46677898708730936  1.0000
  F   F2        1.0  0.5892843582550995  0.2493632328696549  0.45116080821026117  1.0000
data_image31
_chemical_formula_structural       Ca2P2H8O10F2
_chemical_formula_sum              "Ca2 P2 H8 O10 F2"
_cell_length_a       8.748547242261026
_cell_length_b       6.5292717768421165
_cell_length_c       5.804229554730758
_cell_angle_alpha    118.85637513684739
_cell_angle_beta     110.64940913561757
_cell_angle_gamma    94.26336680621436

_space_group_name_H-M_alt    "P 1"
_space_group_IT_number       1

loop_
  _space_group_symop_operation_xyz
  'x, y, z'

loop_
  _atom_site_type_symbol
  _atom_site_label
  _atom_site_symmetry_multiplicity
  _atom_site_fract_x
  _atom_site_fract_y
  _atom_site_fract_z
  _atom_site_occupancy
  Ca  Ca1       1.0  0.18465988826937973  0.1269401302561164  0.6672407686710358  1.0000
  Ca  Ca2       1.0  0.8148459329968318  0.7350369666237384  0.6933319480158389  1.0000
  P   P1        1.0  0.01640780351590365  0.015830911928787827  0.4394524267408997  1.0000
  P   P2        1.0  0.3453446216881275  0.9424715400673449  0.9168653031811118  1.0000
  H   H1        1.0  0.43595802468189504  0.7440692202653736  0.7844455037266016  1.0000
  H   H2        1.0  0.2534810686483979  0.038065446286054794  0.4074505427852273  1.0000
  H   H3        1.0  0.38610828714445233  0.5811278127948754  0.5522915741894394  1.0000
  H   H4        1.0  0.4343116807285696  0.5631405527237803  0.3860483955941163  1.0000
  H   H5        1.0  0.852816179045476  0.8092967395205051  0.2294322339585051  1.0000
  H   H6        1.0  0.4202646886697039  0.1411821722285822  0.9712688690051436  1.0000
  H   H7        1.0  0.3691139528527856  0.08246280904859304  0.25041018915362656  1.0000
  H   H8        1.0  0.00964070309419185  0.2359092882834375  0.6830998375080526  1.0000
  O   O1        1.0  0.22161700149126773  0.6101756984717213  0.2272092472849181  1.0000
  O   O2        1.0  0.5432193905617169  0.8627922423765995  0.37594930856721476  1.0000
  O   O3        1.0  0.6417777891329024  0.0030949540669098496  0.18958037492120638  1.0000
  O   O4        1.0  0.6455134367861319  0.8230869602411985  0.5480594772379845  1.0000
  O   O5        1.0  0.6153457106556743  0.740078226197511  0.08810605011240114  1.0000
  O   O6        1.0  0.4030983085904154  0.7378102522343397  0.8985597888822667  1.0000
  O   O7        1.0  0.8943241191300331  0.6744647383166011  0.20975694748631213  1.0000
  O   O8        1.0  0.05414316046517342  0.4128141369437799  0.27866425897809677  1.0000
  O   O9        1.0  0.7419125382803031  0.029951149590488058  0.09728644909046125  1.0000
  O   O10       1.0  0.09353842747077579  0.6704839690501103  0.5010361194072175  1.0000
  F   F1        1.0  0.9451194677967578  0.3087000579107553  0.6958274720236659  1.0000
  F   F2        1.0  0.9740892630070448  0.09533218154683709  0.600379761075601  1.0000
data_image32
_chemical_formula_structural       Ca2P2H8O10F2
_chemical_formula_sum              "Ca2 P2 H8 O10 F2"
_cell_length_a       8.748547242261026
_cell_length_b       6.5292717768421165
_cell_length_c       5.804229554730758
_cell_angle_alpha    118.85637513684739
_cell_angle_beta     110.64940913561757
_cell_angle_gamma    94.26336680621436

_space_group_name_H-M_alt    "P 1"
_space_group_IT_number       1

loop_
  _space_group_symop_operation_xyz
  'x, y, z'

loop_
  _atom_site_type_symbol
  _atom_site_label
  _atom_site_symmetry_multiplicity
  _atom_site_fract_x
  _atom_site_fract_y
  _atom_site_fract_z
  _atom_site_occupancy
  Ca  Ca1       1.0  0.6681822586106136  0.7397540251258761  0.6934995627962053  1.0000
  Ca  Ca2       1.0  0.19157212367281318  0.6362733512651175  0.22324652317911386  1.0000
  P   P1        1.0  0.11543059279210865  0.6384706653188914  0.0509427806828171  1.0000
  P   P2        1.0  0.7838893103180453  0.23322846402879804  0.2805065051652491  1.0000
  H   H1        1.0  0.0018202345818281174  0.666553593473509  0.7359290597960353  1.0000
  H   H2        1.0  0.451902706787223  0.03032362466910854  0.8520051713567227  1.0000
  H   H3        1.0  0.03142385673709214  0.30432375136297196  0.39721733843907714  1.0000
  H   H4        1.0  0.5795291336253285  0.5985343522625044  0.7100349813699722  1.0000
  H   H5        1.0  0.17146926070563495  0.9001244800165296  0.4178627203218639  1.0000
  H   H6        1.0  0.7105569373234175  0.15737393987365067  0.9744361685588956  1.0000
  H   H7        1.0  0.5108624246204272  0.5255982845555991  0.5110575545113534  1.0000
  H   H8        1.0  0.19726721674669534  0.6010315082967281  0.2734429572010413  1.0000
  O   O1        1.0  0.11787335405642807  0.775378153368365  0.42149309493834153  1.0000
  O   O2        1.0  0.643035000503005  0.9788892134092748  0.4150022750000062  1.0000
  O   O3        1.0  0.9094174000783823  0.19830538739915937  0.867188292380888  1.0000
  O   O4        1.0  0.1071408097341191  0.26788640080485493  0.02587220910936594  1.0000
  O   O5        1.0  0.5611309881787747  0.5326717614079826  0.664804505489883  1.0000
  O   O6        1.0  0.9657882098617847  0.6621579332277179  0.7498911751899868  1.0000
  O   O7        1.0  0.39466183104377706  0.713854936970165  0.1597648099595972  1.0000
  O   O8        1.0  0.9946690921206027  0.6720809311373159  0.7136526949470863  1.0000
  O   O9        1.0  0.9390831850760151  0.19345383744075662  0.571511037167511  1.0000
  O   O10       1.0  0.46205744029430207  0.48829583523911424  0.06594884356309194  1.0000
  F   F1        1.0  0.9809258698951453  0.5203469139523804  0.7010098369792104  1.0000
  F   F2        1.0  0.8280337122268975  0.736467277049087  0.46137574675958604  1.0000
data_image33
_chemical_formula_structural       Ca2P2H8O10F2
_chemical_formula_sum              "Ca2 P2 H8 O10 F2"
_cell_length_a       8.748547242261026
_cell_length_b       6.5292717768421165
_cell_length_c       5.804229554730758
_cell_angle_alpha    118.85637513684739
_cell_angle_beta     110.64940913561757
_cell_angle_gamma    94.26336680621436

_space_group_name_H-M_alt    "P 1"
_space_group_IT_number       1

loop_
  _space_group_symop_operation_xyz
  'x, y, z'

loop_
  _atom_site_type_symbol
  _atom_site_label
  _atom_site_symmetry_multiplicity
  _atom_site_fract_x
  _atom_site_fract_y
  _atom_site_fract_z
  _atom_site_occupancy
  Ca  Ca1       1.0  0.7021136359544471  0.5878988469485193  0.19178905570879579  1.0000
  Ca  Ca2       1.0  0.7251257571624592  0.9049806699622422  0.8477627197280526  1.0000
  P   P1        1.0  0.8961550674866885  0.5015384973958135  0.5940769024891779  1.0000
  P   P2        1.0  0.5692676758626476  0.019093123846687376  0.9988968181423843  1.0000
  H   H1        1.0  0.035485283529851586  0.5618677099701017  0.23721794388256967  1.0000
  H   H2        1.0  0.2288107826752821  0.8371186756994575  0.6003262586891651  1.0000
  H   H3        1.0  0.9028032431378961  0.14549819007515907  0.33779941126704216  1.0000
  H   H4        1.0  0.08612053678371012  0.572639420744963  0.2599396537989378  1.0000
  H   H5        1.0  0.7939020962512586  0.2399560916237533  0.14379912265576422  1.0000
  H   H6        1.0  0.7804183310945518  0.535223743878305  0.8686147104017437  1.0000
  H   H7        1.0  0.021451084758155048  0.6188285411335528  0.7336730237584561  1.0000
  H   H8        1.0  0.317258222727105  0.661784466356039  0.7564142054179683  1.0000
  O   O1        1.0  0.6363412850014356  0.5082349391304888  0.28669172576337587  1.0000
  O   O2        1.0  0.556098172261045  0.8573562514502555  0.915232674939034  1.0000
  O   O3        1.0  0.7481586983194575  0.47308936750050634  0.08064092567656189  1.0000
  O   O4        1.0  0.7213620933471248  0.39492790028452873  0.10744014591909945  1.0000
  O   O5        1.0  0.06053162505850196  0.33077590714674443  0.6458130567189073  1.0000
  O   O6        1.0  0.35795856088225264  0.35484300056123175  0.7666112289298326  1.0000
  O   O7        1.0  0.7143074157793308  0.19547179504297674  0.2524102881397994  1.0000
  O   O8        1.0  0.9510611144978611  0.2767530198325403  0.8826560042216443  1.0000
  O   O9        1.0  0.020808162735193036  0.5443453987463727  0.18516721251944546  1.0000
  O   O10       1.0  0.0007881036581238732  0.6217371440143324  0.5094314447851502  1.0000
  F   F1        1.0  0.5101135044824332  0.6255660122260451  0.2599930688738823  1.0000
  F   F2        1.0  0.5024528315989301  0.5189392272150144  0.9471987526048906  1.0000
data_image34
_chemical_formula_structural       Ca2P2H8O10F2
_chemical_formula_sum              "Ca2 P2 H8 O10 F2"
_cell_length_a       8.748547242261026
_cell_length_b       6.5292717768421165
_cell_length_c       5.804229554730758
_cell_angle_alpha    118.85637513684739
_cell_angle_beta     110.64940913561757
_cell_angle_gamma    94.26336680621436

_space_group_name_H-M_alt    "P 1"
_space_group_IT_number       1

loop_
  _space_group_symop_operation_xyz
  'x, y, z'

loop_
  _atom_site_type_symbol
  _atom_site_label
  _atom_site_symmetry_multiplicity
  _atom_site_fract_x
  _atom_site_fract_y
  _atom_site_fract_z
  _atom_site_occupancy
  Ca  Ca1       1.0  0.8619229584001005  0.09812039043754339  0.37834764970466495  1.0000
  Ca  Ca2       1.0  0.7411660286597908  0.07221097988076508  0.2689023674465716  1.0000
  P   P1        1.0  0.2714885520981625  0.49456023424863815  0.0500321303261444  1.0000
  P   P2        1.0  0.4975831954507157  0.9026395224500448  0.9252521460875869  1.0000
  H   H1        1.0  0.3517983751371503  0.7982257392723113  0.8563386496389285  1.0000
  H   H2        1.0  0.8447274638165254  0.23985752352746204  0.4503258054610342  1.0000
  H   H3        1.0  0.7863954836502671  0.6478815227746964  0.8354225233197212  1.0000
  H   H4        1.0  0.7171642848988995  0.5256046152208  0.8591229347512126  1.0000
  H   H5        1.0  0.6006706655025482  0.06157251447439194  0.7291787569411099  1.0000
  H   H6        1.0  0.3551652220194228  0.15514246094971895  0.8902806523256004  1.0000
  H   H7        1.0  0.14401959744282067  0.3753602202050388  0.8372960679698735  1.0000
  H   H8        1.0  0.9703853725222871  0.10435938090085983  0.47988201421685517  1.0000
  O   O1        1.0  0.6248731776850036  0.4222326437011361  0.9903815543657402  1.0000
  O   O2        1.0  0.9803575076066409  0.5716810936573893  0.3441977347029024  1.0000
  O   O3        1.0  0.6139582160976715  0.6150582612026483  0.8345123011968099  1.0000
  O   O4        1.0  0.014484968327451497  0.9713549998123199  0.2978505641222  1.0000
  O   O5        1.0  0.7008924267720431  0.23649487411603332  0.5255221535917372  1.0000
  O   O6        1.0  0.5715639893824118  0.6564389210834634  0.23855869832914323  1.0000
  O   O7        1.0  0.5931029058992863  0.45049069632659666  0.19837338353681844  1.0000
  O   O8        1.0  0.39562451901019813  0.0866681940970011  0.9993191928952001  1.0000
  O   O9        1.0  0.402196866896702  0.8216280836822989  0.3584111779782688  1.0000
  O   O10       1.0  0.045748047770757694  0.44784702772449236  0.30769983227946796  1.0000
  F   F1        1.0  0.3884015642106533  0.8703683037310839  0.6426723785698414  1.0000
  F   F2        1.0  0.5919958076556213  0.44762571109458804  0.9077456846716814  1.0000
data_image35
_chemical_formula_structural       Ca2P2H8O10F2
_chemical_formula_sum              "Ca2 P2 H8 O10 F2"
_cell_length_a       8.748547242261026
_cell_length_b       6.5292717768421165
_cell_length_c       5.804229554730758
_cell_angle_alpha    118.85637513684739
_cell_angle_beta     110.64940913561757
_cell_angle_gamma    94.26336680621436

_space_group_name_H-M_alt    "P 1"
_space_group_IT_number       1

loop_
  _space_group_symop_operation_xyz
  'x, y, z'

loop_
  _atom_site_type_symbol
  _atom_site_label
  _atom_site_symmetry_multiplicity
  _atom_site_fract_x
  _atom_site_fract_y
  _atom_site_fract_z
  _atom_site_occupancy
  Ca  Ca1       1.0  0.3670872232760303  0.09239655290730298  0.5708619044162333  1.0000
  Ca  Ca2       1.0  0.923496046452783  0.3506541906390339  0.3874332676641643  1.0000
  P   P1        1.0  0.033230679924599826  0.6596033631358296  0.7703849170356989  1.0000
  P   P2        1.0  0.9260975383222103  0.5852840550942346  0.27019752422347665  1.0000
  H   H1        1.0  0.08818873221753165  0.6240924689918756  0.09324082976672798  1.0000
  H   H2        1.0  0.6800386009781505  0.8996657874668017  0.16408712812699378  1.0000
  H   H3        1.0  0.2417039794381708  0.1327543007209897  0.539894986897707  1.0000
  H   H4        1.0  0.9257441941881552  0.6108216433785856  0.8535861715208739  1.0000
  H   H5        1.0  0.2812504098692443  0.11969338776543736  0.16917082585860044  1.0000
  H   H6        1.0  0.39964715484529734  0.7667915423517115  0.576032031327486  1.0000
  H   H7        1.0  0.10463415668345988  0.6261381541262381  0.9831719056237489  1.0000
  H   H8        1.0  0.8728265870595351  0.6938009513542056  0.9318053264141781  1.0000
  O   O1        1.0  0.18403857777593657  0.3054751565796323  0.5226194595306879  1.0000
  O   O2        1.0  0.19023642406864383  0.6705423821113072  0.47812733376485994  1.0000
  O   O3        1.0  0.3417559749505017  0.15263188391691074  0.3527994790347293  1.0000
  O   O4        1.0  0.8919581756053958  0.5623957191128284  0.7420540568418801  1.0000
  O   O5        1.0  0.20753918262198567  0.9052209627407137  0.8596294394155848  1.0000
  O   O6        1.0  0.20957468961569248  0.9798998456972186  0.1725522747146897  1.0000
  O   O7        1.0  0.9890561046340736  0.38012465951032937  0.09131857752498718  1.0000
  O   O8        1.0  0.9944118737332701  0.6134217541548423  0.6428175954497419  1.0000
  O   O9        1.0  0.07090762691950658  0.6981631333137557  0.5854175071453938  1.0000
  O   O10       1.0  0.8558568399530486  0.4509547119232593  0.3316058021300705  1.0000
  F   F1        1.0  0.17434043111279607  0.7998084800783545  0.752736740745604  1.0000
  F   F2        1.0  0.902394873497542  0.37447878054808825  0.7073139016283676  1.0000
data_image36
_chemical_formula_structural       Ca2P2H8O10F2
_chemical_formula_sum              "Ca2 P2 H8 O10 F2"
_cell_length_a       8.748547242261026
_cell_length_b       6.5292717768421165
_cell_length_c       5.804229554730758
_cell_angle_alpha    118.85637513684739
_cell_angle_beta     110.64940913561757
_cell_angle_gamma    94.26336680621436

_space_group_name_H-M_alt    "P 1"
_space_group_IT_number       1

loop_
  _space_group_symop_operation_xyz
  'x, y, z'

loop_
  _atom_site_type_symbol
  _atom_site_label
  _atom_site_symmetry_multiplicity
  _atom_site_fract_x
  _atom_site_fract_y
  _atom_site_fract_z
  _atom_site_occupancy
  Ca  Ca1       1.0  0.7213685879833065  0.9416680333670229  0.9362359587103128  1.0000
  Ca  Ca2       1.0  0.04494974855333567  0.05255865608341992  0.15806213719770312  1.0000
  P   P1        1.0  0.9175112049560994  0.8212935794144869  0.9266820694319904  1.0000
  P   P2        1.0  0.695844158064574  0.938140960119199  0.6158613690640777  1.0000
  H   H1        1.0  0.20990627707215026  0.30015429947525263  0.19765693019144237  1.0000
  H   H2        1.0  0.5216292980621802  0.242381928517716  0.9391797524876893  1.0000
  H   H3        1.0  0.6554873241111636  0.68016292527318  0.3208215683698654  1.0000
  H   H4        1.0  0.24393202341161668  0.4605434985132888  0.619467661716044  1.0000
  H   H5        1.0  0.16051758927642368  0.26786124310456216  0.17867317679338157  1.0000
  H   H6        1.0  0.6012527531711385  0.28777829016325995  0.35716265393421054  1.0000
  H   H7        1.0  0.2656405586749315  0.6850841635314282  0.4831838100217283  1.0000
  H   H8        1.0  0.13908677350264043  0.6290568308904767  0.9815642761532217  1.0000
  O   O1        1.0  0.6324646234643296  0.9745402309927158  0.7267598552425625  1.0000
  O   O2        1.0  0.19784062238613842  0.8507718155160546  0.09668809358845465  1.0000
  O   O3        1.0  0.0321813008049503  0.0056699232663959265  0.7064458668173756  1.0000
  O   O4        1.0  0.5788690838380717  0.4340090111363679  0.48657925240695477  1.0000
  O   O5        1.0  0.45986279379576445  0.3343368965724949  0.6773754790483508  1.0000
  O   O6        1.0  0.8924944692917052  0.6188282115326729  0.8049198043299839  1.0000
  O   O7        1.0  0.5263045024621533  0.23080209744512103  0.9836525350510783  1.0000
  O   O8        1.0  0.35856077577045653  0.5069571749772877  0.5961526164319366  1.0000
  O   O9        1.0  0.05542503900869633  0.29660386808427575  0.027522588407009607  1.0000
  O   O10       1.0  0.6774547514505684  0.08547271034331061  0.9847556185923168  1.0000
  F   F1        1.0  0.36569590540602803  0.1921782367862761  0.1679284553974867  1.0000
  F   F2        1.0  0.42699339106911793  0.03626806172542274  0.43833942274795845  1.0000
data_image37
_chemical_formula_structural       Ca2P2H8O10F2
_chemical_formula_sum              "Ca2 P2 H8 O10 F2"
_cell_length_a       8.748547242261026
_cell_length_b       6.5292717768421165
_cell_length_c       5.804229554730758
_cell_angle_alpha    118.85637513684739
_cell_angle_beta     110.64940913561757
_cell_angle_gamma    94.26336680621436

_space_group_name_H-M_alt    "P 1"
_space_group_IT_number       1

loop_
  _space_group_symop_operation_xyz
  'x, y, z'

loop_
  _atom_site_type_symbol
  _atom_site_label
  _atom_site_symmetry_multiplicity
  _atom_site_fract_x
  _atom_site_fract_y
  _atom_site_fract_z
  _atom_site_occupancy
  Ca  Ca1       1.0  0.4499167204485275  0.7005256195552647  0.7636515502817929  1.0000
  Ca  Ca2       1.0  0.784039186546579  0.0699883031193167  0.7741674911230803  1.0000
  P   P1        1.0  0.1009454868035391  0.7879988211207092  0.34421404264867306  1.0000
  P   P2        1.0  0.046272283885627985  0.0620012583094649  0.6742083774879575  1.0000
  H   H1        1.0  0.10327691992279142  0.10417830292135477  0.34148470242507756  1.0000
  H   H2        1.0  0.28825530607718974  0.8950016466260422  0.5851037609390914  1.0000
  H   H3        1.0  0.9582768552936614  0.572195902466774  0.41762105375528336  1.0000
  H   H4        1.0  0.07932395080570132  0.6213626998942345  0.5239655673503876  1.0000
  H   H5        1.0  0.07850012645940296  0.11804611096158624  0.10849250794854015  1.0000
  H   H6        1.0  0.8202529905829579  0.659357225522399  0.3793475297279656  1.0000
  H   H7        1.0  0.876891867723316  0.1651675362372771  0.34044843236915767  1.0000
  H   H8        1.0  0.23661156371235847  0.3990374319255352  0.15489778917981312  1.0000
  O   O1        1.0  0.956605196610326  0.01665430364664644  0.4167307321622502  1.0000
  O   O2        1.0  0.24135451521578943  0.35095831099897623  0.527006264164811  1.0000
  O   O3        1.0  0.8339819203247316  0.4959709014510736  0.6991452990914695  1.0000
  O   O4        1.0  0.21563092598807998  0.6856575509300455  0.8462791265919805  1.0000
  O   O5        1.0  0.4111582040786743  0.4007331622415222  0.5522724869297235  1.0000
  O   O6        1.0  0.4853205712279305  0.6773188888910227  0.6586623121984303  1.0000
  O   O7        1.0  0.8206464271133882  0.9537566129583865  0.40506101477512857  1.0000
  O   O8        1.0  0.3100141133895704  0.8789671838167123  0.08385601756162941  1.0000
  O   O9        1.0  0.7933744168931298  0.563208334524461  0.12026870124100242  1.0000
  O   O10       1.0  0.795375155081274  0.5628912110696547  0.9373322155006463  1.0000
  F   F1        1.0  0.7023993916809559  0.08695330517366529  0.8214471447281539  1.0000
  F   F2        1.0  0.08054317365167663  0.9115280868718401  0.6193027650588192  1.0000
data_image38
_chemical_formula_structural       Ca2P2H8O10F2
_chemical_formula_sum              "Ca2 P2 H8 O10 F2"
_cell_length_a       8.748547242261026
_cell_length_b       6.5292717768421165
_cell_length_c       5.804229554730758
_cell_angle_alpha    118.85637513684739
_cell_angle_beta     110.64940913561757
_cell_angle_gamma    94.26336680621436

_space_group_name_H-M_alt    "P 1"
_space_group_IT_number       1

loop_
  _space_group_symop_operation_xyz
  'x, y, z'

loop_
  _atom_site_type_symbol
  _atom_site_label
  _atom_site_symmetry_multiplicity
  _atom_site_fract_x
  _atom_site_fract_y
  _atom_site_fract_z
  _atom_site_occupancy
  Ca  Ca1       1.0  0.2376839123899117  0.08764540299307555  0.6910330350510776  1.0000
  Ca  Ca2       1.0  0.4434986272826791  0.20289793878328055  0.593632971867919  1.0000
  P   P1        1.0  0.30636970011983067  0.939617394702509  0.7581148650497198  1.0000
  P   P2        1.0  0.3632615227252245  0.7650174280570354  0.25827352865599096  1.0000
  H   H1        1.0  0.015519018634222448  0.8330398127436638  0.11018003895878792  1.0000
  H   H2        1.0  0.13795576739357784  0.587118146562716  0.059218544978648424  1.0000
  H   H3        1.0  0.2573033277876675  0.17374194599688053  0.9030792992562056  1.0000
  H   H4        1.0  0.19850635551847517  0.5763553153956309  0.7185403229668736  1.0000
  H   H5        1.0  0.1629256870946847  0.34045709506608546  0.5676500189583749  1.0000
  H   H6        1.0  0.05848884006263688  0.12519783551761066  0.604749390273355  1.0000
  H   H7        1.0  0.009122316841967404  0.3656285213364754  0.6735163938719779  1.0000
  H   H8        1.0  0.2858784915879369  0.6042269528843462  0.770668170065619  1.0000
  O   O1        1.0  0.513077574352792  0.44204557850025594  0.5671498844312737  1.0000
  O   O2        1.0  0.7519061876664637  0.3779331726836972  0.7521572303667199  1.0000
  O   O3        1.0  0.22994966609985568  0.3896719932090491  0.3656933497986756  1.0000
  O   O4        1.0  0.4887656489154324  0.6084587593795732  0.09269344480708241  1.0000
  O   O5        1.0  0.9786404056940228  0.8442786847881507  0.9883296829575556  1.0000
  O   O6        1.0  0.3380609234009171  0.9066023968334775  0.7100431508151814  1.0000
  O   O7        1.0  0.5216699575030361  0.20607616537017748  0.8359238901884964  1.0000
  O   O8        1.0  0.08911365952917549  0.028621509962249547  0.9708527870243415  1.0000
  O   O9        1.0  0.12162592486129142  0.2917398283170769  0.9900223076692782  1.0000
  O   O10       1.0  0.032730112980061676  0.3596315152826719  0.4874449485068908  1.0000
  F   F1        1.0  0.12809362588450313  0.9798466005595401  0.8200814942829311  1.0000
  F   F2        1.0  0.9466246681986377  0.5618202263722196  0.745123109780252  1.0000
data_image39
_chemical_formula_structural       Ca2P2H8O10F2
_chemical_formula_sum              "Ca2 P2 H8 O10 F2"
_cell_length_a       8.748547242261026
_cell_length_b       6.5292717768421165
_cell_length_c       5.804229554730758
_cell_angle_alpha    118.85637513684739
_cell_angle_beta     110.64940913561757
_cell_angle_gamma    94.26336680621436

_space_group_name_H-M_alt    "P 1"
_space_group_IT_number       1

loop_
  _space_group_symop_operation_xyz
  'x, y, z'

loop_
  _atom_site_type_symbol
  _atom_site_label
  _atom_site_symmetry_multiplicity
  _atom_site_fract_x
  _atom_site_fract_y
  _atom_site_fract_z
  _atom_site_occupancy
  Ca  Ca1       1.0  0.13672456552740186  0.6617934891837649  0.5631782365962863  1.0000
  Ca  Ca2       1.0  0.05974600580520928  0.17018406999704894  0.580035419203341  1.0000
  P   P1        1.0  0.30575676524313167  0.9809204516932368  0.07404380022489931  1.0000
  P   P2        1.0  0.7978512509725988  0.4973130752914585  0.498392449459061  1.0000
  H   H1        1.0  0.5785188241861761  0.5437896656803787  0.9513159284833819  1.0000
  H   H2        1.0  0.2715270373155363  0.712092055240646  0.3609740496613085  1.0000
  H   H3        1.0  0.27104744012467563  0.9613736858591437  0.5699249636381865  1.0000
  H   H4        1.0  0.0653653705958277  0.5037195475306362  0.5161726248916239  1.0000
  H   H5        1.0  0.4517919228237588  0.1822479364927858  0.5555468519451097  1.0000
  H   H6        1.0  0.04647119660512544  0.2162713271100074  0.006710445275530219  1.0000
  H   H7        1.0  0.12546101352199912  0.18071034381864592  0.45473489281721413  1.0000
  H   H8        1.0  0.6933672556187958  0.5665141753852367  0.7294992886018008  1.0000
  O   O1        1.0  0.8144357503406354  0.7590509500005282  0.4746774438681314  1.0000
  O   O2        1.0  0.6583163960603997  0.4433937153662555  0.7185930753039429  1.0000
  O   O3        1.0  0.9731928869732656  0.26399107289034873  0.10433597274823114  1.0000
  O   O4        1.0  0.2845251784019638  0.3356645965250209  0.013418249087408185  1.0000
  O   O5        1.0  0.4357456788420677  0.2511690025276039  0.9326331480260706  1.0000
  O   O6        1.0  0.2953708922577789  0.35586136326310225  0.5471728824195452  1.0000
  O   O7        1.0  0.15470223504235037  0.19164758210536093  0.44820224185332336  1.0000
  O   O8        1.0  0.6446033556958355  0.5014767352258787  0.7693756052758545  1.0000
  O   O9        1.0  0.6985445228347089  0.44850087542727124  0.684958687692415  1.0000
  O   O10       1.0  0.2618987374517019  0.11575705764698796  0.7304955691070063  1.0000
  F   F1        1.0  0.7927662273868918  0.31376978766638786  0.23666608100757003  1.0000
  F   F2        1.0  0.8922721752896905  0.35864219709765166  0.49743203492835164  1.0000
data_image40
_chemical_formula_structural       Ca2P2H8O10F2
_chemical_formula_sum              "Ca2 P2 H8 O10 F2"
_cell_length_a       8.748547242261026
_cell_length_b       6.5292717768421165
_cell_length_c       5.804229554730758
_cell_angle_alpha    118.85637513684739
_cell_angle_beta     110.64940913561757
_cell_angle_gamma    94.26336680621436

_space_group_name_H-M_alt    "P 1"
_space_group_IT_number       1

loop_
  _space_group_symop_operation_xyz
  'x, y, z'

loop_
  _atom_site_type_symbol
  _atom_site_label
  _atom_site_symmetry_multiplicity
  _atom_site_fract_x
  _atom_site_fract_y
  _atom_site_fract_z
  _atom_site_occupancy
  Ca  Ca1       1.0  0.5528321689926088  0.30954162310808897  0.5327994665130973  1.0000
  Ca  Ca2       1.0  0.5522679379209876  0.8064710089820437  0.8741396246477962  1.0000
  P   P1        1.0  0.22062353184446692  0.44139388808980584  0.15032754198182374  1.0000
  P   P2        1.0  0.5163709404878318  0.3387540146068204  0.7089790075551718  1.0000
  H   H1        1.0  0.641243121237494  0.897364342585206  0.8942989371716976  1.0000
  H   H2        1.0  0.7197718846146017  0.7088717900915071  0.05742319440469146  1.0000
  H   H3        1.0  0.023772612446919084  0.3876982284709811  0.7814172934740782  1.0000
  H   H4        1.0  0.8065140610560775  0.3296702194493264  0.403119784547016  1.0000
  H   H5        1.0  0.4313503871380817  0.9885905850678682  0.887220407021232  1.0000
  H   H6        1.0  0.7284102747798897  0.8796182335354388  0.6067496286705136  1.0000
  H   H7        1.0  0.5384024747181684  0.2586103240319062  0.08270798716694117  1.0000
  H   H8        1.0  0.9656910691410303  0.8099183104932308  0.8225048426538706  1.0000
  O   O1        1.0  0.4469606288475916  0.8859960810514167  0.6933266310370527  1.0000
  O   O2        1.0  0.9110691823807429  0.010643271554727107  0.9779286376142409  1.0000
  O   O3        1.0  0.4738573709037155  0.6676754183135927  0.4955158461816609  1.0000
  O   O4        1.0  0.8600933035631897  0.29365761729422957  0.4926811426412314  1.0000
  O   O5        1.0  0.9513556421734393  0.6195184176904149  0.08499052160186693  1.0000
  O   O6        1.0  0.7358950961206574  0.2728539769886993  0.6099731903523207  1.0000
  O   O7        1.0  0.7296367883391213  0.2623259192041587  0.39148373021453153  1.0000
  O   O8        1.0  0.7832943563407753  0.14153138169785962  0.8449061866849661  1.0000
  O   O9        1.0  0.483002200795454  0.3027002772578271  0.11637577466899529  1.0000
  O   O10       1.0  0.549295119875751  0.043123429612023756  0.7870552170497831  1.0000
  F   F1        1.0  0.13467625295743346  0.371465289441403  0.18275619996711612  1.0000
  F   F2        1.0  0.49714310048148036  0.8303289270261303  0.992148766759783  1.0000
data_image41
_chemical_formula_structural       Ca2P2H8O10F2
_chemical_formula_sum              "Ca2 P2 H8 O10 F2"
_cell_length_a       8.748547242261026
_cell_length_b       6.5292717768421165
_cell_length_c       5.804229554730758
_cell_angle_alpha    118.85637513684739
_cell_angle_beta     110.64940913561757
_cell_angle_gamma    94.26336680621436

_space_group_name_H-M_alt    "P 1"
_space_group_IT_number       1

loop_
  _space_group_symop_operation_xyz
  'x, y, z'

loop_
  _atom_site_type_symbol
  _atom_site_label
  _atom_site_symmetry_multiplicity
  _atom_site_fract_x
  _atom_site_fract_y
  _atom_site_fract_z
  _atom_site_occupancy
  Ca  Ca1       1.0  0.23777345567941666  0.358807711629197  0.3366044368594885  1.0000
  Ca  Ca2       1.0  0.34661296172998846  0.6282437590998597  0.6135379215702415  1.0000
  P   P1        1.0  0.04217128598247655  0.6454135023523122  0.9945279825478792  1.0000
  P   P2        1.0  0.29398591769859195  0.6938195899419952  0.030844257213175297  1.0000
  H   H1        1.0  0.8035854287445545  0.7437488920986652  0.09021409275010228  1.0000
  H   H2        1.0  0.6064686186145991  0.4486330836516572  0.6288656210526824  1.0000
  H   H3        1.0  0.5935521149076521  0.4610816203057766  0.12701849080622196  1.0000
  H   H4        1.0  0.6644188520731404  0.6668332332046703  0.6244830766227096  1.0000
  H   H5        1.0  0.9597308497613994  0.7903181863948703  0.2511439174413681  1.0000
  H   H6        1.0  0.2856344203464687  0.011792411387432367  0.1828798893839121  1.0000
  H   H7        1.0  0.300437921192497  0.8553263191133738  0.6668230309151113  1.0000
  H   H8        1.0  0.11127962684258819  0.1414572261273861  0.1690700191538781  1.0000
  O   O1        1.0  0.3952089897939004  0.24481411511078477  0.8831813526339829  1.0000
  O   O2        1.0  0.7935950639221119  0.7172323243285064  0.9652056287159212  1.0000
  O   O3        1.0  0.19866920303320512  0.9224112338852137  0.8755636659334414  1.0000
  O   O4        1.0  0.45796820751274936  0.4186392144765705  0.4439463147427887  1.0000
  O   O5        1.0  0.9752720668911934  0.9118362719600555  0.32237598187930416  1.0000
  O   O6        1.0  0.6456894376606215  0.041971951141022146  0.79051403561607  1.0000
  O   O7        1.0  0.021386171312769875  0.0031316938111558557  0.5756457219831645  1.0000
  O   O8        1.0  0.11559156428256756  0.41929115110542625  0.24488929891958833  1.0000
  O   O9        1.0  0.8690039690118283  0.5718227050383575  0.5587897383666132  1.0000
  O   O10       1.0  0.1481538799489499  0.7191454131680075  0.5428817115316633  1.0000
  F   F1        1.0  0.3864744300954044  0.05404537823051214  0.8792886291630566  1.0000
  F   F2        1.0  0.9168972701299936  0.09697336296085268  0.7543400321155787  1.0000
data_image42
_chemical_formula_structural       Ca2P2H8O10F2
_chemical_formula_sum              "Ca2 P2 H8 O10 F2"
_cell_length_a       8.748547242261026
_cell_length_b       6.5292717768421165
_cell_length_c       5.804229554730758
_cell_angle_alpha    118.85637513684739
_cell_angle_beta     110.64940913561757
_cell_angle_gamma    94.26336680621436

_space_group_name_H-M_alt    "P 1"
_space_group_IT_number       1

loop_
  _space_group_symop_operation_xyz
  'x, y, z'

loop_
  _atom_site_type_symbol
  _atom_site_label
  _atom_site_symmetry_multiplicity
  _atom_site_fract_x
  _atom_site_fract_y
  _atom_site_fract_z
  _atom_site_occupancy
  Ca  Ca1       1.0  0.25833999970927835  0.6094734091311693  0.2156798830255866  1.0000
  Ca  Ca2       1.0  0.940976289100945  0.4768508826964535  0.0273435078561306  1.0000
  P   P1        1.0  0.4945959323376883  0.19049285864457488  0.30327911057975143  1.0000
  P   P2        1.0  0.30387007584795356  0.11659178067930043  0.5854777784552425  1.0000
  H   H1        1.0  0.12723742658272386  0.07738833734765649  0.4285178277641535  1.0000
  H   H2        1.0  0.807596150028985  0.7719440486689564  0.220658456441015  1.0000
  H   H3        1.0  0.18953759293071926  0.41184414457529783  0.10502223111689091  1.0000
  H   H4        1.0  0.9838451166870072  0.22264814306981862  0.5391402505338192  1.0000
  H   H5        1.0  0.2636480689106975  0.957800317555666  0.10740540619008243  1.0000
  H   H6        1.0  0.3920208791969344  0.11356325971428305  0.38523874804377556  1.0000
  H   H7        1.0  0.6931775498669595  0.3488262617320288  0.22340307291597128  1.0000
  H   H8        1.0  0.9559535628650337  0.5042009116150439  0.49945313041098416  1.0000
  O   O1        1.0  0.7913505173055455  0.9962176614790224  0.3067809019048582  1.0000
  O   O2        1.0  0.8504381286547869  0.8498560065054335  0.5518595210160129  1.0000
  O   O3        1.0  0.7215451107476838  0.06648054718971252  0.23486518405843526  1.0000
  O   O4        1.0  0.21442228520754725  0.02151004341430962  0.45932968123815954  1.0000
  O   O5        1.0  0.12773959152400494  0.4116885726689361  0.2191028657834977  1.0000
  O   O6        1.0  0.20981990169093478  0.5059274659433868  0.40743643732275814  1.0000
  O   O7        1.0  0.9914742026303429  0.45145103381946683  0.824830231606029  1.0000
  O   O8        1.0  0.23720995452049465  0.7159726620884612  0.6483442693715915  1.0000
  O   O9        1.0  0.5253360505739693  0.5451567780546611  0.9080506707832683  1.0000
  O   O10       1.0  0.9781444241598365  0.93511208271957  0.01861104763520416  1.0000
  F   F1        1.0  0.217205083463341  0.6305269470904022  0.5993490503169596  1.0000
  F   F2        1.0  0.8168759589316323  0.914484175038524  0.9720117817632854  1.0000
data_image43
_chemical_formula_structural       Ca2P2H8O10F2
_chemical_formula_sum              "Ca2 P2 H8 O10 F2"
_cell_length_a       8.748547242261026
_cell_length_b       6.5292717768421165
_cell_length_c       5.804229554730758
_cell_angle_alpha    118.85637513684739
_cell_angle_beta     110.64940913561757
_cell_angle_gamma    94.26336680621436

_space_group_name_H-M_alt    "P 1"
_space_group_IT_number       1

loop_
  _space_group_symop_operation_xyz
  'x, y, z'

loop_
  _atom_site_type_symbol
  _atom_site_label
  _atom_site_symmetry_multiplicity
  _atom_site_fract_x
  _atom_site_fract_y
  _atom_site_fract_z
  _atom_site_occupancy
  Ca  Ca1       1.0  0.8917704010382295  0.09056975855492055  0.7810016786679626  1.0000
  Ca  Ca2       1.0  0.3831293499097228  0.6949227971490473  0.08844920434057713  1.0000
  P   P1        1.0  0.13960812534787692  0.6317543738987297  0.028101895295549184  1.0000
  P   P2        1.0  0.07596178678795695  0.2381201660609804  0.5000681453384459  1.0000
  H   H1        1.0  0.09749081614427269  0.5909823873080313  0.9082558781374246  1.0000
  H   H2        1.0  0.3352815775142517  0.0641206500295084  0.03999760467559099  1.0000
  H   H3        1.0  0.9506021295674145  0.0870497515425086  0.21035161241889  1.0000
  H   H4        1.0  0.7904084265464917  0.40756853320635855  0.16681571607477963  1.0000
  H   H5        1.0  0.9250491780112498  0.3259374159388244  0.25884487805888057  1.0000
  H   H6        1.0  0.257083194097504  0.568668611056637  0.08610294247046113  1.0000
  H   H7        1.0  0.3746224802453071  0.11146342341089621  0.37994656851515174  1.0000
  H   H8        1.0  0.7915499457158148  0.26497971965000033  0.5590029687155038  1.0000
  O   O1        1.0  0.22040712099988014  0.794001052447129  0.41443004066240974  1.0000
  O   O2        1.0  0.25473090729428804  0.8277041859109886  0.9174034703173675  1.0000
  O   O3        1.0  0.35458085406571627  0.13251237355871126  0.3808544732746668  1.0000
  O   O4        1.0  0.8775084626831813  0.770278912386857  0.5999425535555929  1.0000
  O   O5        1.0  0.8758869795128703  0.16741044612717815  0.7907592121337075  1.0000
  O   O6        1.0  0.4156643082824303  0.35083930304972455  0.880571507033892  1.0000
  O   O7        1.0  0.6346932934684446  0.19882663252064958  0.15915867127478123  1.0000
  O   O8        1.0  0.05387675353307486  0.5127931276219897  0.6063306297874078  1.0000
  O   O9        1.0  0.4386145472963108  0.7922280047059758  0.7212742672127206  1.0000
  O   O10       1.0  0.23178037397156004  0.4043930373736657  0.7291912044602213  1.0000
  F   F1        1.0  0.5233648982830346  0.6203361982479692  0.04632069822400808  1.0000
  F   F2        1.0  0.770626224228181  0.97384957538452  0.060666938312351704  1.0000
data_image44
_chemical_formula_structural       Ca2P2H8O10F2
_chemical_formula_sum              "Ca2 P2 H8 O10 F2"
_cell_length_a       8.748547242261026
_cell_length_b       6.5292717768421165
_cell_length_c       5.804229554730758
_cell_angle_alpha    118.85637513684739
_cell_angle_beta     110.64940913561757
_cell_angle_gamma    94.26336680621436

_space_group_name_H-M_alt    "P 1"
_space_group_IT_number       1

loop_
  _space_group_symop_operation_xyz
  'x, y, z'

loop_
  _atom_site_type_symbol
  _atom_site_label
  _atom_site_symmetry_multiplicity
  _atom_site_fract_x
  _atom_site_fract_y
  _atom_site_fract_z
  _atom_site_occupancy
  Ca  Ca1       1.0  0.9621384907513857  0.32954601268284023  0.2797009777277708  1.0000
  Ca  Ca2       1.0  0.8584615038707852  0.8217022806056775  0.6921279542148113  1.0000
  P   P1        1.0  0.8082656376354862  0.025528081925585866  0.6608111230307259  1.0000
  P   P2        1.0  0.18839817820116878  0.58505736864754  0.17562356288544834  1.0000
  H   H1        1.0  0.9053555012214929  0.14922879170626402  0.7279938589781523  1.0000
  H   H2        1.0  0.0806917785666883  0.2805379238561727  0.5317909619770944  1.0000
  H   H3        1.0  0.24828485306352377  0.7761901933699846  0.6947121918201447  1.0000
  H   H4        1.0  0.8201829579193145  0.9443615424679592  0.034966129809617996  1.0000
  H   H5        1.0  0.6476924498565495  0.10952921211719513  0.4390341527760029  1.0000
  H   H6        1.0  0.36742285499349236  0.3532509617507458  0.5218540248461068  1.0000
  H   H7        1.0  0.7944513199618086  0.7457489242660813  0.8967181029729545  1.0000
  H   H8        1.0  0.0476372295524925  0.8030878165736794  0.39383358252234757  1.0000
  O   O1        1.0  0.3269696267088875  0.06365048862062395  0.009909908752888441  1.0000
  O   O2        1.0  0.44227687985403463  0.12779409825452603  0.5964319390477613  1.0000
  O   O3        1.0  0.9404899892979302  0.9943811193807051  0.6119155414635316  1.0000
  O   O4        1.0  0.2656539230083581  0.24707056838087738  0.601482231868431  1.0000
  O   O5        1.0  0.5967778512276709  0.1787894451408647  0.30617147748125717  1.0000
  O   O6        1.0  0.5886626976134721  0.04312530730385333  0.8933122929884121  1.0000
  O   O7        1.0  0.9016059624264017  0.5004174011992291  0.72489670154755  1.0000
  O   O8        1.0  0.5813283310923225  0.573091666563414  0.09167932427953929  1.0000
  O   O9        1.0  0.6526527856622124  0.9706877634889679  0.5044803193013649  1.0000
  O   O10       1.0  0.7453205761412391  0.396512017789064  0.9737779896240681  1.0000
  F   F1        1.0  0.2700165444985032  0.966088161803782  0.43229818623512983  1.0000
  F   F2        1.0  0.55254663573578  0.7244069818407297  0.3694225559011102  1.0000
data_image45
_chemical_formula_structural       Ca2P2H8O10F2
_chemical_formula_sum              "Ca2 P2 H8 O10 F2"
_cell_length_a       8.748547242261026
_cell_length_b       6.5292717768421165
_cell_length_c       5.804229554730758
_cell_angle_alpha    118.85637513684739
_cell_angle_beta     110.64940913561757
_cell_angle_gamma    94.26336680621436

_space_group_name_H-M_alt    "P 1"
_space_group_IT_number       1

loop_
  _space_group_symop_operation_xyz
  'x, y, z'

loop_
  _atom_site_type_symbol
  _atom_site_label
  _atom_site_symmetry_multiplicity
  _atom_site_fract_x
  _atom_site_fract_y
  _atom_site_fract_z
  _atom_site_occupancy
  Ca  Ca1       1.0  0.20505879400298  0.9991698728408664  0.9624786376953125  1.0000
  Ca  Ca2       1.0  0.863266087602824  0.974115623452235  0.4951392002403736  1.0000
  P   P1        1.0  0.681345701974351  0.10685008601285517  0.9908824438462034  1.0000
  P   P2        1.0  0.44359903736039996  0.4081565155356657  0.8459615758620203  1.0000
  H   H1        1.0  0.23956620739772916  0.11192910885438323  0.5037408024072647  1.0000
  H   H2        1.0  0.04632338369265199  0.13539419864537194  0.5464812642894685  1.0000
  H   H3        1.0  0.8307742483448237  0.49641179386526346  0.5970452688634396  1.0000
  H   H4        1.0  0.48871475108899176  0.7252177529735491  0.07266773167066276  1.0000
  H   H5        1.0  0.47651067841798067  0.5066995732486248  0.03247833997011185  1.0000
  H   H6        1.0  0.0058577737072482705  0.12441410805331543  0.20572934299707413  1.0000
  H   H7        1.0  0.8092718188418075  0.09153860420337878  0.8501259426120669  1.0000
  H   H8        1.0  0.9274438158608973  0.5362247116863728  0.2977504227310419  1.0000
  O   O1        1.0  0.37129142170306295  0.5202540988102555  0.9144268459640443  1.0000
  O   O2        1.0  0.7792734842587379  0.36248549190349877  0.9126373266917653  1.0000
  O   O3        1.0  0.015971155371516943  0.9797351404558867  0.8528502876870334  1.0000
  O   O4        1.0  0.37536262001958676  0.7949949132744223  0.7344615526963025  1.0000
  O   O5        1.0  0.6171939275227487  0.05206887930398807  0.08165070338873193  1.0000
  O   O6        1.0  0.7653075975977117  0.0842835855728481  0.731411864166148  1.0000
  O   O7        1.0  0.9082607150776312  0.452294034359511  0.10739199147792533  1.0000
  O   O8        1.0  0.8096918943899709  0.3306266172439791  0.799095565569587  1.0000
  O   O9        1.0  0.03702668705955148  0.6468154092144687  0.2997949887649156  1.0000
  O   O10       1.0  0.14292831653438043  0.9394023581553483  0.16232238701195456  1.0000
  F   F1        1.0  0.20658735744655132  0.992871827329509  0.24964835168793797  1.0000
  F   F2        1.0  0.022402951610274613  0.6915921987965703  0.7386419251561165  1.0000
data_image46
_chemical_formula_structural       Ca2P2H8O10F2
_chemical_formula_sum              "Ca2 P2 H8 O10 F2"
_cell_length_a       8.748547242261026
_cell_length_b       6.5292717768421165
_cell_length_c       5.804229554730758
_cell_angle_alpha    118.85637513684739
_cell_angle_beta     110.64940913561757
_cell_angle_gamma    94.26336680621436

_space_group_name_H-M_alt    "P 1"
_space_group_IT_number       1

loop_
  _space_group_symop_operation_xyz
  'x, y, z'

loop_
  _atom_site_type_symbol
  _atom_site_label
  _atom_site_symmetry_multiplicity
  _atom_site_fract_x
  _atom_site_fract_y
  _atom_site_fract_z
  _atom_site_occupancy
  Ca  Ca1       1.0  0.856185443000868  0.17873752629384398  0.27546162996441126  1.0000
  Ca  Ca2       1.0  0.23379719234071672  0.2841297973645851  0.7377658961340785  1.0000
  P   P1        1.0  0.7592594908783212  0.9453163230791688  0.3451008361589629  1.0000
  P   P2        1.0  0.5439081718213856  0.7290557209598774  0.4397884914651513  1.0000
  H   H1        1.0  0.7121496500913054  0.867594650015235  0.9963697278872132  1.0000
  H   H2        1.0  0.8161775357439183  0.04084845638135448  0.45766159798949957  1.0000
  H   H3        1.0  0.5052176960743964  0.25936567317694426  0.8019557800143957  1.0000
  H   H4        1.0  0.22816303349100053  0.06228515430120751  0.01273985905572772  1.0000
  H   H5        1.0  0.8455790039151907  0.9491633512079716  0.6139358580112457  1.0000
  H   H6        1.0  0.5175407022470608  0.09108968905638903  0.6390721406787634  1.0000
  H   H7        1.0  0.29566343466285616  0.8932914124161471  0.754789647879079  1.0000
  H   H8        1.0  0.30118391453288496  0.3781342967413366  0.9605715201469138  1.0000
  O   O1        1.0  0.057586263632401824  0.1536125879501924  0.05965248076245189  1.0000
  O   O2        1.0  0.3592673769162502  0.3459257480571978  0.6215276469883975  1.0000
  O   O3        1.0  0.025244577671401203  0.8088476993725635  0.9131632284261286  1.0000
  O   O4        1.0  0.31879147034487687  0.8502934854477644  0.17046859324909747  1.0000
  O   O5        1.0  0.08055564016103745  0.3242515731835738  0.5709150957263773  1.0000
  O   O6        1.0  0.39730650406272616  0.08531612495426089  0.6532638376811519  1.0000
  O   O7        1.0  0.331100227922434  0.7708239116473123  0.25832376815378666  1.0000
  O   O8        1.0  0.3150487096281722  0.8794827539240941  0.93447960622143  1.0000
  O   O9        1.0  0.16117693782871356  0.7596418897883268  0.7558439612039365  1.0000
  O   O10       1.0  0.6056662962655537  0.2790188575309003  0.437562294973759  1.0000
  F   F1        1.0  0.21160274371504784  0.0811158106662333  0.826565713621676  1.0000
  F   F2        1.0  0.013853417127393186  0.7613782978150994  0.6295801866799593  1.0000
data_image47
_chemical_formula_structural       Ca2P2H8O10F2
_chemical_formula_sum              "Ca2 P2 H8 O10 F2"
_cell_length_a       8.748547242261026
_cell_length_b       6.5292717768421165
_cell_length_c       5.804229554730758
_cell_angle_alpha    118.85637513684739
_cell_angle_beta     110.64940913561757
_cell_angle_gamma    94.26336680621436

_space_group_name_H-M_alt    "P 1"
_space_group_IT_number       1

loop_
  _space_group_symop_operation_xyz
  'x, y, z'

loop_
  _atom_site_type_symbol
  _atom_site_label
  _atom_site_symmetry_multiplicity
  _atom_site_fract_x
  _atom_site_fract_y
  _atom_site_fract_z
  _atom_site_occupancy
  Ca  Ca1       1.0  0.5219267071224749  0.1824527361895889  0.6791619276627898  1.0000
  Ca  Ca2       1.0  0.5395837821997702  0.24702990427613258  0.38569680973887444  1.0000
  P   P1        1.0  0.07272846007253975  0.08856722130440176  0.7524854687508196  1.0000
  P   P2        1.0  0.8192047234624624  0.9378170384079567  0.5068285067100078  1.0000
  H   H1        1.0  0.5596487945877016  0.18190724775195122  0.5814251515548676  1.0000
  H   H2        1.0  0.8864499495830387  0.22937289063702337  0.6716917012818158  1.0000
  H   H3        1.0  0.9819856658577919  0.19177345279604197  0.22041504085063934  1.0000
  H   H4        1.0  0.7778175558196381  0.5339481681585312  0.5012997006997466  1.0000
  H   H5        1.0  0.1324952021241188  0.5512462258338928  0.9211183190345764  1.0000
  H   H6        1.0  0.4695383384823799  0.09566250041825697  0.7922621665056795  1.0000
  H   H7        1.0  0.7987796665111091  0.9551580267288955  0.5826385407708585  1.0000
  H   H8        1.0  0.7107802222017199  0.5483126072213054  0.03164976602420211  1.0000
  O   O1        1.0  0.8959852925036103  0.7175671409349889  0.5256712683476508  1.0000
  O   O2        1.0  0.00772967872035224  0.17822821193840355  0.12954671576153487  1.0000
  O   O3        1.0  0.5482517061755061  0.007835192081984133  0.6747384892078117  1.0000
  O   O4        1.0  0.05342652602121234  0.0568811958655715  0.8434439632110298  1.0000
  O   O5        1.0  0.8436600039713085  0.4102583847125061  0.634777838975424  1.0000
  O   O6        1.0  0.7749807287618751  0.05905288297799416  0.15090073575265706  1.0000
  O   O7        1.0  0.9278619994038309  0.13672294502612203  0.3395045464130817  1.0000
  O   O8        1.0  0.4165079065114696  0.4279616823187098  0.5336452499032021  1.0000
  O   O9        1.0  0.7119150370344869  0.23075533637893386  0.9491981930623297  1.0000
  O   O10       1.0  0.9002019650943112  0.494671774431481  0.5599952874326846  1.0000
  F   F1        1.0  0.9217469794675708  0.12575244472827762  0.12025512242689729  1.0000
  F   F2        1.0  0.9088361592730507  0.5619988518301398  0.5422260081395507  1.0000
data_image48
_chemical_formula_structural       Ca2P2H8O10F2
_chemical_formula_sum              "Ca2 P2 H8 O10 F2"
_cell_length_a       8.748547242261026
_cell_length_b       6.5292717768421165
_cell_length_c       5.804229554730758
_cell_angle_alpha    118.85637513684739
_cell_angle_beta     110.64940913561757
_cell_angle_gamma    94.26336680621436

_space_group_name_H-M_alt    "P 1"
_space_group_IT_number       1

loop_
  _space_group_symop_operation_xyz
  'x, y, z'

loop_
  _atom_site_type_symbol
  _atom_site_label
  _atom_site_symmetry_multiplicity
  _atom_site_fract_x
  _atom_site_fract_y
  _atom_site_fract_z
  _atom_site_occupancy
  Ca  Ca1       1.0  0.8907732339575887  0.6555466370191425  0.8449623817577958  1.0000
  Ca  Ca2       1.0  0.5091659165918827  0.05835609068162739  0.9384120693430305  1.0000
  P   P1        1.0  0.9658040843205526  0.09252659138292074  0.08705277857370675  1.0000
  P   P2        1.0  0.9154093977995217  0.7625656696327496  0.0059767672792077065  1.0000
  H   H1        1.0  0.27283760579302907  0.22801686404272914  0.5455776753369719  1.0000
  H   H2        1.0  0.8134481416200288  0.0849561216600705  0.9929996933788061  1.0000
  H   H3        1.0  0.2717924762982875  0.25539171788841486  0.058946553617715836  1.0000
  H   H4        1.0  0.8763110933359712  0.5300257274648175  0.091997972689569  1.0000
  H   H5        1.0  0.3744541760534048  0.7624855004251003  0.834432452917099  1.0000
  H   H6        1.0  0.01792286109412089  0.36979106691433117  0.8829818814992905  1.0000
  H   H7        1.0  0.8855240253760712  0.05302087200470851  0.24183966126292944  1.0000
  H   H8        1.0  0.7851399965584278  0.9477990260347724  0.5255923697259277  1.0000
  O   O1        1.0  0.43228755751624703  0.40210550581105053  0.47422720468603075  1.0000
  O   O2        1.0  0.4891709687872208  0.1185257388278842  0.8577774300938472  1.0000
  O   O3        1.0  0.9688114040181972  0.8933338726055808  0.6313756100134924  1.0000
  O   O4        1.0  0.2831652896711603  0.2506969701498747  0.9037247211672366  1.0000
  O   O5        1.0  0.30519237858243287  0.22642764361808077  0.29068386359722354  1.0000
  O   O6        1.0  0.6013970894855447  0.4992386212106794  0.5255517947953194  1.0000
  O   O7        1.0  0.5802616745713749  0.008799343078862876  0.48552392308192793  1.0000
  O   O8        1.0  0.5468023453177011  0.9632243380765431  0.06015902233775705  1.0000
  O   O9        1.0  0.26920848755253246  0.6405788107367698  0.38081586282351054  1.0000
  O   O10       1.0  0.8968616342463065  0.8666712849080795  0.8093159985874081  1.0000
  F   F1        1.0  0.9725790498778224  0.7865799148567021  0.31413878640159965  1.0000
  F   F2        1.0  0.9808839102042839  0.5145334627013654  0.03660584893077612  1.0000
data_image49
_chemical_formula_structural       Ca2P2H8O10F2
_chemical_formula_sum              "Ca2 P2 H8 O10 F2"
_cell_length_a       8.748547242261026
_cell_length_b       6.5292717768421165
_cell_length_c       5.804229554730758
_cell_angle_alpha    118.85637513684739
_cell_angle_beta     110.64940913561757
_cell_angle_gamma    94.26336680621436

_space_group_name_H-M_alt    "P 1"
_space_group_IT_number       1

loop_
  _space_group_symop_operation_xyz
  'x, y, z'

loop_
  _atom_site_type_symbol
  _atom_site_label
  _atom_site_symmetry_multiplicity
  _atom_site_fract_x
  _atom_site_fract_y
  _atom_site_fract_z
  _atom_site_occupancy
  Ca  Ca1       1.0  0.6638158080168068  0.4486032633576542  0.4061451111920178  1.0000
  Ca  Ca2       1.0  0.9826106177642941  0.6889251674292609  0.5756009658798575  1.0000
  P   P1        1.0  0.15556130500044674  0.9991260501556098  0.722726660547778  1.0000
  P   P2        1.0  0.7543642912060022  0.9629178354807664  0.6478395168669522  1.0000
  H   H1        1.0  0.4454649477265775  0.6676139989867806  0.9929235891904682  1.0000
  H   H2        1.0  0.6697200060007162  0.009986497345380485  0.4868338373489678  1.0000
  H   H3        1.0  0.8175443389918655  0.3593172524124384  0.7132930252701044  1.0000
  H   H4        1.0  0.31498152017593384  0.4217046210542321  0.1517109170090407  1.0000
  H   H5        1.0  0.24814511183649302  0.214870136231184  0.5702043548226357  1.0000
  H   H6        1.0  0.997831960034091  0.6289992284728214  0.117526761488989  1.0000
  H   H7        1.0  0.13463265053724172  0.12045925395250379  0.03749410668388009  1.0000
  H   H8        1.0  0.6241064229980111  0.5794150400906801  0.9095380231156014  1.0000
  O   O1        1.0  0.4821141657885164  0.3813251231331378  0.8070427894126624  1.0000
  O   O2        1.0  0.9045874359289883  0.26321950170677155  0.9535137459461112  1.0000
  O   O3        1.0  0.9316172261023894  0.1769371831906028  0.0012448540655896068  1.0000
  O   O4        1.0  0.5295741691952571  0.5399055243469775  0.35729248682036996  1.0000
  O   O5        1.0  0.32623917213641107  0.8218898307532072  0.3800985355046578  1.0000
  O   O6        1.0  0.5725675026842509  0.6938805550744291  0.06436036294326186  1.0000
  O   O7        1.0  0.8896461481272127  0.21281551662832499  0.24079972643812653  1.0000
  O   O8        1.0  0.08414584606362041  0.9190799252828583  0.48347074491903186  1.0000
  O   O9        1.0  0.591856537903368  0.7061521877258201  0.09707438363693655  1.0000
  O   O10       1.0  0.9003402140078833  0.0558545074381982  0.34692911741149146  1.0000
  F   F1        1.0  0.9969067559577525  0.06478478852659464  0.9404879561625421  1.0000
  F   F2        1.0  0.23182658373843879  0.9533853677567095  0.06768369860947132  1.0000
data_image50
_chemical_formula_structural       Ca2P2H8O10F2
_chemical_formula_sum              "Ca2 P2 H8 O10 F2"
_cell_length_a       8.748547242261026
_cell_length_b       6.5292717768421165
_cell_length_c       5.804229554730758
_cell_angle_alpha    118.85637513684739
_cell_angle_beta     110.64940913561757
_cell_angle_gamma    94.26336680621436

_space_group_name_H-M_alt    "P 1"
_space_group_IT_number       1

loop_
  _space_group_symop_operation_xyz
  'x, y, z'

loop_
  _atom_site_type_symbol
  _atom_site_label
  _atom_site_symmetry_multiplicity
  _atom_site_fract_x
  _atom_site_fract_y
  _atom_site_fract_z
  _atom_site_occupancy
  Ca  Ca1       1.0  0.5876005124300718  0.3587288297712803  0.7193805216811597  1.0000
  Ca  Ca2       1.0  0.3875875663943589  0.10775773017667234  0.7545799892395735  1.0000
  P   P1        1.0  0.562678731745109  0.12223255261778831  0.049616614589467645  1.0000
  P   P2        1.0  0.8690602807328105  0.13865619157877518  0.4278329755179584  1.0000
  H   H1        1.0  0.5627929389011115  0.4335705330595374  0.3428561061155051  1.0000
  H   H2        1.0  0.04447586712194607  0.27268294646637514  0.6026373361237347  1.0000
  H   H3        1.0  0.3045691845472902  0.8829250037670135  0.24696848541498184  1.0000
  H   H4        1.0  0.9481769420672208  0.8176200080779381  0.7998019685037434  1.0000
  H   H5        1.0  0.1885437434539199  0.635881170630455  0.9849063232541084  1.0000
  H   H6        1.0  0.060462964756879956  0.07523935189237818  0.8144949569832534  1.0000
  H   H7        1.0  0.29421642857050756  0.8749768934976601  0.9818139998242259  1.0000
  H   H8        1.0  0.041705467738211155  0.4421840370632708  0.3635397980106063  1.0000
  O   O1        1.0  0.9338701840024441  0.4360077284509316  0.7858687518164515  1.0000
  O   O2        1.0  0.6760928422299912  0.5188897022453602  0.08088284733821638  1.0000
  O   O3        1.0  0.635410153248813  0.8016817689058371  0.13754003687063232  1.0000
  O   O4        1.0  0.5273765503661707  0.6060727802105248  0.2083357209339738  1.0000
  O   O5        1.0  0.11978880153037608  0.6342125876108184  0.7337605476786848  1.0000
  O   O6        1.0  0.5290971168651595  0.912898899463471  0.5815201892983168  1.0000
  O   O7        1.0  0.7644397894327994  0.22344619722571224  0.15089081825863104  1.0000
  O   O8        1.0  0.5655439770962403  0.3887268020771444  0.5280397118767723  1.0000
  O   O9        1.0  0.35199781598930713  0.6043490408555954  0.5962713364278898  1.0000
  O   O10       1.0  0.7594416878855554  0.1443053049442824  0.9282999239949277  1.0000
  F   F1        1.0  0.27791935252025723  0.3853939698310569  0.9316101688891649  1.0000
  F   F2        1.0  0.6478414071025327  0.25609302218072116  0.22199650947004557  1.0000
data_image51
_chemical_formula_structural       Ca2P2H8O10F2
_chemical_formula_sum              "Ca2 P2 H8 O10 F2"
_cell_length_a       8.748547242261026
_cell_length_b       6.5292717768421165
_cell_length_c       5.804229554730758
_cell_angle_alpha    118.85637513684739
_cell_angle_beta     110.64940913561757
_cell_angle_gamma    94.26336680621436

_space_group_name_H-M_alt    "P 1"
_space_group_IT_number       1

loop_
  _space_group_symop_operation_xyz
  'x, y, z'

loop_
  _atom_site_type_symbol
  _atom_site_label
  _atom_site_symmetry_multiplicity
  _atom_site_fract_x
  _atom_site_fract_y
  _atom_site_fract_z
  _atom_site_occupancy
  Ca  Ca1       1.0  0.683411865029484  0.5526832086034119  0.21356672374531627  1.0000
  Ca  Ca2       1.0  0.7405020464211702  0.8978856640169397  0.886378507129848  1.0000
  P   P1        1.0  0.9060115334577858  0.7640026682056487  0.9088313672691584  1.0000
  P   P2        1.0  0.032301321625709534  0.247953192134446  0.5881647802889347  1.0000
  H   H1        1.0  0.8582323342561722  0.9840721562504768  0.06338727287948132  1.0000
  H   H2        1.0  0.06412236212054268  0.23562495334772393  0.7573368474841118  1.0000
  H   H3        1.0  0.18297997023910284  0.4934082003310323  0.40669110044837  1.0000
  H   H4        1.0  0.5878926361910999  0.3728180764010176  0.9902138242032379  1.0000
  H   H5        1.0  0.4119852278381586  0.589598223567009  0.10360073298215866  1.0000
  H   H6        1.0  0.050868261023424566  0.26685513730626553  0.9120564227923751  1.0000
  H   H7        1.0  0.6365432120728656  0.5723343702338752  0.28866130392998457  1.0000
  H   H8        1.0  0.11209592665545642  0.8833170081488788  0.8069159421138465  1.0000
  O   O1        1.0  0.4920324404956773  0.4882575338706374  0.8826398558449  1.0000
  O   O2        1.0  0.909079248252965  0.18352160826907493  0.9494105481426232  1.0000
  O   O3        1.0  0.40742239996325225  0.22380933800013736  0.36535413446836174  1.0000
  O   O4        1.0  0.5824844649760053  0.7124242673162371  0.6381210526451468  1.0000
  O   O5        1.0  0.48844064329750836  0.9962167320190929  0.3128072292020079  1.0000
  O   O6        1.0  0.6191099397838116  0.9266417934268247  0.01369545515626669  1.0000
  O   O7        1.0  0.48950806605716934  0.10517317813355476  0.6524387839745032  1.0000
  O   O8        1.0  0.7020287089253543  0.7093748265178874  0.3650559119414538  1.0000
  O   O9        1.0  0.0834775145194726  0.6312218108287198  0.8464237965818029  1.0000
  O   O10       1.0  0.872533691683202  0.04737077938625589  0.14778351492714137  1.0000
  F   F1        1.0  0.5613685133866966  0.3400946503970772  0.1998134241439402  1.0000
  F   F2        1.0  0.7935026872437447  0.3742590604815632  0.7095669619739056  1.0000
data_image52
_chemical_formula_structural       Ca2P2H8O10F2
_chemical_formula_sum              "Ca2 P2 H8 O10 F2"
_cell_length_a       8.748547242261026
_cell_length_b       6.5292717768421165
_cell_length_c       5.804229554730758
_cell_angle_alpha    118.85637513684739
_cell_angle_beta     110.64940913561757
_cell_angle_gamma    94.26336680621436

_space_group_name_H-M_alt    "P 1"
_space_group_IT_number       1

loop_
  _space_group_symop_operation_xyz
  'x, y, z'

loop_
  _atom_site_type_symbol
  _atom_site_label
  _atom_site_symmetry_multiplicity
  _atom_site_fract_x
  _atom_site_fract_y
  _atom_site_fract_z
  _atom_site_occupancy
  Ca  Ca1       1.0  0.3115383703261614  0.2562708342447877  0.5133023210801184  1.0000
  Ca  Ca2       1.0  0.2227686014957726  0.5216703175101429  0.4946782886981964  1.0000
  P   P1        1.0  0.5855743014253676  0.2143640131689608  0.4449749970808625  1.0000
  P   P2        1.0  0.5361816436052322  0.3634203950932715  0.34917612676508725  1.0000
  H   H1        1.0  0.09311858681030571  0.8230055356398225  0.5308359395712614  1.0000
  H   H2        1.0  0.4180976680945605  0.1999761335318908  0.9676639842800796  1.0000
  H   H3        1.0  0.3033550586551428  0.5457034111022949  0.7214665003120899  1.0000
  H   H4        1.0  0.6859609259990975  0.42111949453828856  0.6902075065299869  1.0000
  H   H5        1.0  0.34854498226195574  0.05967603623867035  0.8894833773374557  1.0000
  H   H6        1.0  0.29231789422919974  0.0765932789654471  0.9900866912212223  1.0000
  H   H7        1.0  0.13587990938685834  0.6262218045158079  0.17522055422887206  1.0000
  H   H8        1.0  0.4563986051362008  0.27430738927796483  0.480886741890572  1.0000
  O   O1        1.0  0.45106328383553773  0.7668766611022875  0.24848865787498653  1.0000
  O   O2        1.0  0.0674947441657423  0.34087199447094463  0.4020058690512087  1.0000
  O   O3        1.0  0.15813584945863113  0.34559917205478996  0.6262878662673756  1.0000
  O   O4        1.0  0.3429784575710073  0.9702737110201269  0.761351571418345  1.0000
  O   O5        1.0  0.26037680194713175  0.7936547069693916  0.051389690561336465  1.0000
  O   O6        1.0  0.6529019042864093  0.3419380680716131  0.9565091679105535  1.0000
  O   O7        1.0  0.8730752962437691  0.5426711047184654  0.9493512122135144  1.0000
  O   O8        1.0  0.8483647780594765  0.6655270245973952  0.9658019097987562  1.0000
  O   O9        1.0  0.02793188760188059  0.26347966327739414  0.5172791463846806  1.0000
  O   O10       1.0  0.20832359994528815  0.621045867963403  0.47451117607124615  1.0000
  F   F1        1.0  0.736705434974283  0.8087973456131294  0.4724710318259895  1.0000
  F   F2        1.0  0.830029531265609  0.35009431396611035  0.3060004925355315  1.0000
data_image53
_chemical_formula_structural       Ca2P2H8O10F2
_chemical_formula_sum              "Ca2 P2 H8 O10 F2"
_cell_length_a       8.748547242261026
_cell_length_b       6.5292717768421165
_cell_length_c       5.804229554730758
_cell_angle_alpha    118.85637513684739
_cell_angle_beta     110.64940913561757
_cell_angle_gamma    94.26336680621436

_space_group_name_H-M_alt    "P 1"
_space_group_IT_number       1

loop_
  _space_group_symop_operation_xyz
  'x, y, z'

loop_
  _atom_site_type_symbol
  _atom_site_label
  _atom_site_symmetry_multiplicity
  _atom_site_fract_x
  _atom_site_fract_y
  _atom_site_fract_z
  _atom_site_occupancy
  Ca  Ca1       1.0  0.08487037103623152  0.40025752293877304  0.16699420660734177  1.0000
  Ca  Ca2       1.0  0.07134928461164236  0.2963560129282996  0.7183706602081656  1.0000
  P   P1        1.0  0.33304612105712295  0.7688763840124011  0.4783156388439238  1.0000
  P   P2        1.0  0.3339157090522349  0.15772315199137665  0.594884876627475  1.0000
  H   H1        1.0  0.2483857674524188  0.9796991823241115  0.28918157098814845  1.0000
  H   H2        1.0  0.2607816749950871  0.39386999828275293  0.7324614594690502  1.0000
  H   H3        1.0  0.6409613064024597  0.9130946900695562  0.4554224908351898  1.0000
  H   H4        1.0  0.5986066627083346  0.6598156779655255  0.03605392621830106  1.0000
  H   H5        1.0  0.7418144633993506  0.5829282775521278  0.5134365633130074  1.0000
  H   H6        1.0  0.6032752353057731  0.793904565856792  0.43853339785709977  1.0000
  H   H7        1.0  0.4828890826902352  0.3099905632843729  0.6240283413790166  1.0000
  H   H8        1.0  0.5428401599638164  0.9061053022742271  0.4708501790300943  1.0000
  O   O1        1.0  0.2495556096546352  0.3903801094274968  0.546297408407554  1.0000
  O   O2        1.0  0.6984606047808484  0.9872629035089631  0.1461732829338871  1.0000
  O   O3        1.0  0.03542386807384901  0.11793887318344787  0.1886818947386928  1.0000
  O   O4        1.0  0.7842897373484448  0.14987321384251118  0.719818249810487  1.0000
  O   O5        1.0  0.33022827934473753  0.73718520719558  0.9051446442608722  1.0000
  O   O6        1.0  0.5592912784341024  0.2639390326512512  0.8589950774330646  1.0000
  O   O7        1.0  0.15626631562190596  0.9949977733776905  0.6966037280508317  1.0000
  O   O8        1.0  0.943911810987629  0.7303215489955619  0.5845414801733568  1.0000
  O   O9        1.0  0.8461890427915932  0.009357771486975253  0.16343903899542056  1.0000
  O   O10       1.0  0.40146114797971677  0.39457003381539835  0.317099244959536  1.0000
  F   F1        1.0  0.8699633488431573  0.8880972630577162  0.9046008246950805  1.0000
  F   F2        1.0  0.48604116530623287  0.24571346607990563  0.16932857036590576  1.0000
data_image54
_chemical_formula_structural       Ca2P2H8O10F2
_chemical_formula_sum              "Ca2 P2 H8 O10 F2"
_cell_length_a       8.748547242261026
_cell_length_b       6.5292717768421165
_cell_length_c       5.804229554730758
_cell_angle_alpha    118.85637513684739
_cell_angle_beta     110.64940913561757
_cell_angle_gamma    94.26336680621436

_space_group_name_H-M_alt    "P 1"
_space_group_IT_number       1

loop_
  _space_group_symop_operation_xyz
  'x, y, z'

loop_
  _atom_site_type_symbol
  _atom_site_label
  _atom_site_symmetry_multiplicity
  _atom_site_fract_x
  _atom_site_fract_y
  _atom_site_fract_z
  _atom_site_occupancy
  Ca  Ca1       1.0  0.11860969103872776  0.21188688138499856  0.0788905848748982  1.0000
  Ca  Ca2       1.0  0.5012174751609564  0.16833955515176058  0.8565408634021878  1.0000
  P   P1        1.0  0.6052013991866261  0.7295048697851598  0.20764581649564207  1.0000
  P   P2        1.0  0.8124069019686431  0.6577954992244486  0.0962534571881406  1.0000
  H   H1        1.0  0.9151123566552997  0.4417243665084243  0.32356318924576044  1.0000
  H   H2        1.0  0.7759142415598035  0.21941479458473623  0.052551232278347015  1.0000
  H   H3        1.0  0.35265591251663864  0.8170281108468771  0.992287416011095  1.0000
  H   H4        1.0  0.6795290926238522  0.19908529106760398  0.9320101402699947  1.0000
  H   H5        1.0  0.7563707204535604  0.048907749354839325  0.3291473835706711  1.0000
  H   H6        1.0  0.03854482917813584  0.4758639764622785  0.6307490146718919  1.0000
  H   H7        1.0  0.02950128260999918  0.5199331221811008  0.30225575156509876  1.0000
  H   H8        1.0  0.4875570861622691  0.10003989189863205  0.058567089261487126  1.0000
  O   O1        1.0  0.7777971223695204  0.9544051658594981  0.962048111949116  1.0000
  O   O2        1.0  0.7921705376611499  0.5603109186631627  0.16600612053298391  1.0000
  O   O3        1.0  0.986257862241473  0.5952534846728668  0.6857166416011751  1.0000
  O   O4        1.0  0.8488467506831512  0.7962338516954333  0.608183775562793  1.0000
  O   O5        1.0  0.2723087938502431  0.5122480584541336  0.5014970256743254  1.0000
  O   O6        1.0  0.347831701830728  0.48890116094844416  0.8277393045136705  1.0000
  O   O7        1.0  0.30546312032674905  0.35221322654979303  0.6035826237639412  1.0000
  O   O8        1.0  0.1730476384582289  0.5529895880026743  0.20149793266318738  1.0000
  O   O9        1.0  0.274921184656705  0.898601783439517  0.052856513793813065  1.0000
  O   O10       1.0  0.5507540959079051  0.26737945054628653  0.15943350845191162  1.0000
  F   F1        1.0  0.08481309795752168  0.8635497069917619  0.5017157415859401  1.0000
  F   F2        1.0  0.11416188674047589  0.6597714780364186  0.47550590615719557  1.0000
data_image55
_chemical_formula_structural       Ca2P2H8O10F2
_chemical_formula_sum              "Ca2 P2 H8 O10 F2"
_cell_length_a       8.748547242261026
_cell_length_b       6.5292717768421165
_cell_length_c       5.804229554730758
_cell_angle_alpha    118.85637513684739
_cell_angle_beta     110.64940913561757
_cell_angle_gamma    94.26336680621436

_space_group_name_H-M_alt    "P 1"
_space_group_IT_number       1

loop_
  _space_group_symop_operation_xyz
  'x, y, z'

loop_
  _atom_site_type_symbol
  _atom_site_label
  _atom_site_symmetry_multiplicity
  _atom_site_fract_x
  _atom_site_fract_y
  _atom_site_fract_z
  _atom_site_occupancy
  Ca  Ca1       1.0  0.9330073809251189  0.3283082162961364  0.39798022573813796  1.0000
  Ca  Ca2       1.0  0.24675235245376825  0.9511593843344599  0.8450329685583711  1.0000
  P   P1        1.0  0.9271897880826145  0.3942764070816338  0.593531203456223  1.0000
  P   P2        1.0  0.019399854354560375  0.30577308958163485  0.29054091143189  1.0000
  H   H1        1.0  0.9592485388275236  0.17174229864031076  0.9547100556083024  1.0000
  H   H2        1.0  0.7762247638893314  0.8929669842473231  0.06477553816512227  1.0000
  H   H3        1.0  0.482822050107643  0.4623607276007533  0.41676180250942707  1.0000
  H   H4        1.0  0.5361653746804222  0.7898944153566845  0.4358119636308402  1.0000
  H   H5        1.0  0.38904325012117624  0.43035754933953285  0.20315179228782654  1.0000
  H   H6        1.0  0.9848839476471767  0.8223515410209075  0.029816283145919442  1.0000
  H   H7        1.0  0.9899696460342966  0.10759831240284257  0.54989881394431  1.0000
  H   H8        1.0  0.3575278299394995  0.8482821057550609  0.0852546207170235  1.0000
  O   O1        1.0  0.30710983101744205  0.3113855296978727  0.5096159535460174  1.0000
  O   O2        1.0  0.6292616416030796  0.6618299818073865  0.1922069143911358  1.0000
  O   O3        1.0  0.19427226058905944  0.09762742702150717  0.12458114343462512  1.0000
  O   O4        1.0  0.6557007721858099  0.20045723486691713  0.3055362165905535  1.0000
  O   O5        1.0  0.6744088276755065  0.9699742775410414  0.920943806777359  1.0000
  O   O6        1.0  0.844907231599791  0.2523185499594547  0.3269522689515725  1.0000
  O   O7        1.0  0.6047797061837628  0.26233413931913674  0.5539949667581823  1.0000
  O   O8        1.0  0.7075620353280101  0.775255904707592  0.734164965339005  1.0000
  O   O9        1.0  0.7398802339521353  0.047027149208588526  0.8063448741741013  1.0000
  O   O10       1.0  0.08890929809422232  0.7425481918035075  0.5531799511809368  1.0000
  F   F1        1.0  0.09615473169833422  0.33062558621168137  0.5880350926890969  1.0000
  F   F2        1.0  0.1400643279775977  0.38248674594797194  0.1428095381706953  1.0000
data_image56
_chemical_formula_structural       Ca2P2H8O10F2
_chemical_formula_sum              "Ca2 P2 H8 O10 F2"
_cell_length_a       8.748547242261026
_cell_length_b       6.5292717768421165
_cell_length_c       5.804229554730758
_cell_angle_alpha    118.85637513684739
_cell_angle_beta     110.64940913561757
_cell_angle_gamma    94.26336680621436

_space_group_name_H-M_alt    "P 1"
_space_group_IT_number       1

loop_
  _space_group_symop_operation_xyz
  'x, y, z'

loop_
  _atom_site_type_symbol
  _atom_site_label
  _atom_site_symmetry_multiplicity
  _atom_site_fract_x
  _atom_site_fract_y
  _atom_site_fract_z
  _atom_site_occupancy
  Ca  Ca1       1.0  0.037064088974148035  0.37482587015256286  0.8172214943915606  1.0000
  Ca  Ca2       1.0  0.5974907139316201  0.8057750926818699  0.8807313572615385  1.0000
  P   P1        1.0  0.6952088673133403  0.38263860857114196  0.5557998227886856  1.0000
  P   P2        1.0  0.4924182880204171  0.21400762125267647  0.592363117961213  1.0000
  H   H1        1.0  0.9477969834115356  0.5229525677859783  0.22257805243134499  1.0000
  H   H2        1.0  0.3969224415777717  0.43073827819898725  0.14121963363140821  1.0000
  H   H3        1.0  0.5278977970592678  0.9023019094020128  0.2325681373476982  1.0000
  H   H4        1.0  0.9326794705120847  0.7290657636476681  0.07899825111962855  1.0000
  H   H5        1.0  0.6388635318726301  0.17664944753050804  0.631036214530468  1.0000
  H   H6        1.0  0.3395855632261373  0.7745402436121367  0.648926253663376  1.0000
  H   H7        1.0  0.16178190254140645  0.7476411872776225  0.4302362147718668  1.0000
  H   H8        1.0  0.04450987605378032  0.9082132638432086  0.4829330199136166  1.0000
  O   O1        1.0  0.66732073482126  0.12479634687770158  0.6865365530829877  1.0000
  O   O2        1.0  0.4867532852294971  0.5938752701913472  0.20256794686429203  1.0000
  O   O3        1.0  0.742441854061326  0.17576616071164608  0.9599276031367481  1.0000
  O   O4        1.0  0.3936818914953619  0.8015301136765629  0.26214838353917  1.0000
  O   O5        1.0  0.527649327646941  0.4266035230830312  0.6885340368899051  1.0000
  O   O6        1.0  0.9446738601982361  0.5258895859296899  0.1707699232501909  1.0000
  O   O7        1.0  0.029465622181305662  0.8094077325658873  0.907178774534259  1.0000
  O   O8        1.0  0.6525988402863732  0.6643778646539431  0.9557842840440571  1.0000
  O   O9        1.0  0.34973877638003614  0.931833810696844  0.7224634597660042  1.0000
  O   O10       1.0  0.7808563892904203  0.5877802448667353  0.4001697054482065  1.0000
  F   F1        1.0  0.5719298450276256  0.16208627098239958  0.5749497259967029  1.0000
  F   F2        1.0  0.6056321719661355  0.13471464370377362  0.2825305825099349  1.0000
data_image57
_chemical_formula_structural       Ca2P2H8O10F2
_chemical_formula_sum              "Ca2 P2 H8 O10 F2"
_cell_length_a       8.748547242261026
_cell_length_b       6.5292717768421165
_cell_length_c       5.804229554730758
_cell_angle_alpha    118.85637513684739
_cell_angle_beta     110.64940913561757
_cell_angle_gamma    94.26336680621436

_space_group_name_H-M_alt    "P 1"
_space_group_IT_number       1

loop_
  _space_group_symop_operation_xyz
  'x, y, z'

loop_
  _atom_site_type_symbol
  _atom_site_label
  _atom_site_symmetry_multiplicity
  _atom_site_fract_x
  _atom_site_fract_y
  _atom_site_fract_z
  _atom_site_occupancy
  Ca  Ca1       1.0  0.877066187094897  0.02200704487040639  0.03161416435614228  1.0000
  Ca  Ca2       1.0  0.5218462804332376  0.19841262768022716  0.3490049745887518  1.0000
  P   P1        1.0  0.7838341577444226  0.6055529336445034  0.2572766044177115  1.0000
  P   P2        1.0  0.4618100475054234  0.23133415360643994  0.7262905139359646  1.0000
  H   H1        1.0  0.6956705320626497  0.37068105954676867  0.020803209394216537  1.0000
  H   H2        1.0  0.8202008353109704  0.8483548751100898  0.2052439763210714  1.0000
  H   H3        1.0  0.029922590358182788  0.7265638699755073  0.6808274015784264  1.0000
  H   H4        1.0  0.9650581897003576  0.5766510413377546  0.7572275851853192  1.0000
  H   H5        1.0  0.5981390494853258  0.9058333486318588  0.3426528424024582  1.0000
  H   H6        1.0  0.8154166394961067  0.1183367035118863  0.5725619799923152  1.0000
  H   H7        1.0  0.8116531347623095  0.4265043839113787  0.20429689716547728  1.0000
  H   H8        1.0  0.1803834035526961  0.4134793267585337  0.46431388687051367  1.0000
  O   O1        1.0  0.7073069447651505  0.931551874266006  0.7928973564412445  1.0000
  O   O2        1.0  0.6975910343026044  0.8325871218985412  0.6129002963134553  1.0000
  O   O3        1.0  0.02597569716454018  0.8232515570125543  0.06382409445359372  1.0000
  O   O4        1.0  0.6480559551855549  0.1074271088000387  0.18480034824460745  1.0000
  O   O5        1.0  0.41236327355727553  0.056609959341585636  0.9290236233209725  1.0000
  O   O6        1.0  0.4982243063132046  0.9141443399712443  0.7849108640803024  1.0000
  O   O7        1.0  0.4196945352232433  0.5973905290011317  0.20812498376471922  1.0000
  O   O8        1.0  0.11052279866999015  0.5406480816891417  0.9641179367899895  1.0000
  O   O9        1.0  0.8405507181350913  0.20124165178276598  0.16812268126523122  1.0000
  O   O10       1.0  0.5608453478125739  0.018351489947235677  0.5806586542457808  1.0000
  F   F1        1.0  0.04563095886260271  0.38621861417777836  0.2740345844067633  1.0000
  F   F2        1.0  0.28339763078838587  0.0620794496499002  0.3722220277413726  1.0000
data_image58
_chemical_formula_structural       Ca2P2H8O10F2
_chemical_formula_sum              "Ca2 P2 H8 O10 F2"
_cell_length_a       8.748547242261026
_cell_length_b       6.5292717768421165
_cell_length_c       5.804229554730758
_cell_angle_alpha    118.85637513684739
_cell_angle_beta     110.64940913561757
_cell_angle_gamma    94.26336680621436

_space_group_name_H-M_alt    "P 1"
_space_group_IT_number       1

loop_
  _space_group_symop_operation_xyz
  'x, y, z'

loop_
  _atom_site_type_symbol
  _atom_site_label
  _atom_site_symmetry_multiplicity
  _atom_site_fract_x
  _atom_site_fract_y
  _atom_site_fract_z
  _atom_site_occupancy
  Ca  Ca1       1.0  0.4152103732340038  0.2622038396075368  0.155609842389822  1.0000
  Ca  Ca2       1.0  0.14676414988934994  0.6739863452967256  0.49666631035506725  1.0000
  P   P1        1.0  0.040963408537209034  0.7928831595927477  0.5408893029671162  1.0000
  P   P2        1.0  0.9619242204353213  0.887953689423739  0.9137757916469127  1.0000
  H   H1        1.0  0.458332781214267  0.45430799294263124  0.016392831690609455  1.0000
  H   H2        1.0  0.3649749406031333  0.8169393569696695  0.9783390928059816  1.0000
  H   H3        1.0  0.39749388489872217  0.768159281462431  0.5788329225033522  1.0000
  H   H4        1.0  0.9688091698335484  0.11838282330427319  0.24333948595449328  1.0000
  H   H5        1.0  0.9016991117969155  0.14557378739118576  0.34124018996953964  1.0000
  H   H6        1.0  0.8618791386252269  0.8837446658872068  0.38563000271096826  1.0000
  H   H7        1.0  0.8524482105858624  0.35753453930374235  0.6556606166996062  1.0000
  H   H8        1.0  0.3151061434764415  0.5616777525283396  0.9206328247382771  1.0000
  O   O1        1.0  0.7836225612554699  0.8768696602201089  0.4070132339838892  1.0000
  O   O2        1.0  0.008684597672981909  0.07184655297896825  0.8804005673737265  1.0000
  O   O3        1.0  0.5197484048694605  0.8495047942560632  0.7119156515691429  1.0000
  O   O4        1.0  0.36341915430966765  0.47956602228805423  0.3206266197375953  1.0000
  O   O5        1.0  0.10693394974805415  0.8400751179433428  0.35117094943416305  1.0000
  O   O6        1.0  0.4810853626404423  0.5917398909805343  0.31673064082860947  1.0000
  O   O7        1.0  0.514456291370152  0.7612415179028176  0.48052662450936623  1.0000
  O   O8        1.0  0.6083074111375026  0.431921208743006  0.4711170825175941  1.0000
  O   O9        1.0  0.5304650868547469  0.5583491569850594  0.9467009246291127  1.0000
  O   O10       1.0  0.4259880176468869  0.29959062794659985  0.09897167635790538  1.0000
  F   F1        1.0  0.03864263230934739  0.6418231886345893  0.09919611224904656  1.0000
  F   F2        1.0  0.7929903459735215  0.6950547536835074  0.5539237977936864  1.0000
data_image59
_chemical_formula_structural       Ca2P2H8O10F2
_chemical_formula_sum              "Ca2 P2 H8 O10 F2"
_cell_length_a       8.748547242261026
_cell_length_b       6.5292717768421165
_cell_length_c       5.804229554730758
_cell_angle_alpha    118.85637513684739
_cell_angle_beta     110.64940913561757
_cell_angle_gamma    94.26336680621436

_space_group_name_H-M_alt    "P 1"
_space_group_IT_number       1

loop_
  _space_group_symop_operation_xyz
  'x, y, z'

loop_
  _atom_site_type_symbol
  _atom_site_label
  _atom_site_symmetry_multiplicity
  _atom_site_fract_x
  _atom_site_fract_y
  _atom_site_fract_z
  _atom_site_occupancy
  Ca  Ca1       1.0  0.47678536642342806  0.5622504153288901  0.5424529849551618  1.0000
  Ca  Ca2       1.0  0.8033755738288164  0.8699319916777313  0.3845791909843683  1.0000
  P   P1        1.0  0.61112514231354  0.43030212400481105  0.627228268655017  1.0000
  P   P2        1.0  0.9684814945794642  0.024232622221461497  0.5937042377190664  1.0000
  H   H1        1.0  0.6167655412573367  0.4136597542092204  0.7343773115426302  1.0000
  H   H2        1.0  0.5244360085926019  0.29436258669011295  0.5817755977623165  1.0000
  H   H3        1.0  0.6872316773515195  0.38228924199938774  0.7775627914816141  1.0000
  H   H4        1.0  0.9938664132496342  0.7576757806818932  0.30221568956039846  1.0000
  H   H5        1.0  0.47424186021089554  0.9462979361414909  0.761337086558342  1.0000
  H   H6        1.0  0.3396637827390805  0.5103720545303077  0.8540797038003802  1.0000
  H   H7        1.0  0.36308335652574897  0.069038663408719  0.1876152539625764  1.0000
  H   H8        1.0  0.6023621938657016  0.49293802538886666  0.3506212329521077  1.0000
  O   O1        1.0  0.9987773119937629  0.9083418643567711  0.10700423829257488  1.0000
  O   O2        1.0  0.8538806685537565  0.6030740573187359  0.5824758360686246  1.0000
  O   O3        1.0  0.1881271589663811  0.6468143620004412  0.3576905875088414  1.0000
  O   O4        1.0  0.40284130861982703  0.6296642133966088  0.8833839339204133  1.0000
  O   O5        1.0  0.8004884372930974  0.6872897622815799  0.8105096766812494  1.0000
  O   O6        1.0  0.9026961621420924  0.31366814544890076  0.7819220358505845  1.0000
  O   O7        1.0  0.09712012085219612  0.20840849407250062  0.8637642790563405  1.0000
  O   O8        1.0  0.055804129398893565  0.17815094417892396  0.02258997457101941  1.0000
  O   O9        1.0  0.18871866938397375  0.7625155900605023  0.7600778277264908  1.0000
  O   O10       1.0  0.33108420130156446  0.24971067444857908  0.0038235352840274572  1.0000
  F   F1        1.0  0.40683415718376637  0.4934869911521673  0.998249854426831  1.0000
  F   F2        1.0  0.8678000792860985  0.0251334838103503  0.7800269993022084  1.0000
data_image60
_chemical_formula_structural       Ca2P2H8O10F2
_chemical_formula_sum              "Ca2 P2 H8 O10 F2"
_cell_length_a       8.748547242261026
_cell_length_b       6.5292717768421165
_cell_length_c       5.804229554730758
_cell_angle_alpha    118.85637513684739
_cell_angle_beta     110.64940913561757
_cell_angle_gamma    94.26336680621436

_space_group_name_H-M_alt    "P 1"
_space_group_IT_number       1

loop_
  _space_group_symop_operation_xyz
  'x, y, z'

loop_
  _atom_site_type_symbol
  _atom_site_label
  _atom_site_symmetry_multiplicity
  _atom_site_fract_x
  _atom_site_fract_y
  _atom_site_fract_z
  _atom_site_occupancy
  Ca  Ca1       1.0  0.6567455185577273  0.931450517848134  0.3596372837200761  1.0000
  Ca  Ca2       1.0  0.9890794865787029  0.02345555229112506  0.14613455813378096  1.0000
  P   P1        1.0  0.7322063574101776  0.05891795363277197  0.9996970247011632  1.0000
  P   P2        1.0  0.1952422191388905  0.9974573313556903  0.5467704634647816  1.0000
  H   H1        1.0  0.9726329662371427  0.35402549896389246  0.8683851845562458  1.0000
  H   H2        1.0  0.013513894926290959  0.42634828900918365  0.5825959765352309  1.0000
  H   H3        1.0  0.21480164397507906  0.3826808277517557  0.0077055674046278  1.0000
  H   H4        1.0  0.5161848746938631  0.8268402352114208  0.6098765365313739  1.0000
  H   H5        1.0  0.6361426534131169  0.7740818932652473  0.6298544928431511  1.0000
  H   H6        1.0  0.36151756561594084  0.7247677644481882  0.3904717315454036  1.0000
  H   H7        1.0  0.8196390219964087  0.22729962249286473  0.30515385372564197  1.0000
  H   H8        1.0  0.5255812276154757  0.5961114512756467  0.5879097581673705  1.0000
  O   O1        1.0  0.22182565520051867  0.48175112484022975  0.3031120137311518  1.0000
  O   O2        1.0  0.5562483916401106  0.6715992090757936  0.8322595154168084  1.0000
  O   O3        1.0  0.5805083207505959  0.4259598734352039  0.7393035124114249  1.0000
  O   O4        1.0  0.38813762611243874  0.19097527558915317  0.048853195272386074  1.0000
  O   O5        1.0  0.7539366267155856  0.043374909088015556  0.9909757708228426  1.0000
  O   O6        1.0  0.5368596226908267  0.433510372065939  0.3078856426291168  1.0000
  O   O7        1.0  0.45791519824706484  0.7697601722902618  0.9555222308845259  1.0000
  O   O8        1.0  0.6694820514530875  0.6656102571869269  0.24325038422830403  1.0000
  O   O9        1.0  0.08400437100317504  0.6432763825287111  0.846696898486698  1.0000
  O   O10       1.0  0.8152434323710622  0.8527137868804857  0.9816288699075812  1.0000
  F   F1        1.0  0.04066140158101916  0.34507535956799984  0.9519304181449115  1.0000
  F   F2        1.0  0.734637186396867  0.9099596806336194  0.12843744177371264  1.0000
data_image61
_chemical_formula_structural       Ca2P2H8O10F2
_chemical_formula_sum              "Ca2 P2 H8 O10 F2"
_cell_length_a       8.748547242261026
_cell_length_b       6.5292717768421165
_cell_length_c       5.804229554730758
_cell_angle_alpha    118.85637513684739
_cell_angle_beta     110.64940913561757
_cell_angle_gamma    94.26336680621436

_space_group_name_H-M_alt    "P 1"
_space_group_IT_number       1

loop_
  _space_group_symop_operation_xyz
  'x, y, z'

loop_
  _atom_site_type_symbol
  _atom_site_label
  _atom_site_symmetry_multiplicity
  _atom_site_fract_x
  _atom_site_fract_y
  _atom_site_fract_z
  _atom_site_occupancy
  Ca  Ca1       1.0  0.7157860603183508  0.5141925271600485  0.3096373616717756  1.0000
  Ca  Ca2       1.0  0.4615897899493575  0.6673647435382009  0.527669464237988  1.0000
  P   P1        1.0  0.17701511015184224  0.23839977430179715  0.045836926670745015  1.0000
  P   P2        1.0  0.9407560704275966  0.8454357199880178  0.5580227605532855  1.0000
  H   H1        1.0  0.04058957565575838  0.291365128941834  0.4843469876796007  1.0000
  H   H2        1.0  0.7781104321475141  0.1365323367062956  0.346294391900301  1.0000
  H   H3        1.0  0.8955295979976654  0.4332764046266675  0.7410345524549484  1.0000
  H   H4        1.0  0.03793839120771736  0.055450511048547924  0.9391509969718754  1.0000
  H   H5        1.0  0.9633289612829685  0.006855636835098267  0.5238792598247528  1.0000
  H   H6        1.0  0.6770221500773914  0.2788166184909642  0.4253810627851635  1.0000
  H   H7        1.0  0.8356877149781212  0.3779576877132058  0.6978286462835968  1.0000
  H   H8        1.0  0.8854424634482712  0.14746261108666658  0.04016029147987865  1.0000
  O   O1        1.0  0.2636324968189001  0.7169444456230849  0.018176026409491897  1.0000
  O   O2        1.0  0.9630250794507447  0.5096850469126366  0.21681470557814464  1.0000
  O   O3        1.0  0.8042991226161575  0.6835720932140248  0.37057647107576486  1.0000
  O   O4        1.0  0.5963826075894758  0.38343376759439707  0.8054227260872722  1.0000
  O   O5        1.0  0.16795027465559542  0.8034295930701774  0.6978679976455169  1.0000
  O   O6        1.0  0.8455853150226176  0.5698169987881556  0.033166393637657166  1.0000
  O   O7        1.0  0.34684875069069676  0.22401514084776863  0.0049713674816302955  1.0000
  O   O8        1.0  0.1823784587904811  0.0648671790258959  0.7016111507546157  1.0000
  O   O9        1.0  0.36380388186989876  0.1803857058112044  0.6226834011031315  1.0000
  O   O10       1.0  0.21297398515343957  0.9462673332673148  0.3828070232993923  1.0000
  F   F1        1.0  0.13465680088847876  0.1636512796394527  0.3632130054756999  1.0000
  F   F2        1.0  0.279866018332541  0.8780086257029325  0.43135311733931303  1.0000
data_image62
_chemical_formula_structural       Ca2P2H8O10F2
_chemical_formula_sum              "Ca2 P2 H8 O10 F2"
_cell_length_a       8.748547242261026
_cell_length_b       6.5292717768421165
_cell_length_c       5.804229554730758
_cell_angle_alpha    118.85637513684739
_cell_angle_beta     110.64940913561757
_cell_angle_gamma    94.26336680621436

_space_group_name_H-M_alt    "P 1"
_space_group_IT_number       1

loop_
  _space_group_symop_operation_xyz
  'x, y, z'

loop_
  _atom_site_type_symbol
  _atom_site_label
  _atom_site_symmetry_multiplicity
  _atom_site_fract_x
  _atom_site_fract_y
  _atom_site_fract_z
  _atom_site_occupancy
  Ca  Ca1       1.0  0.7584344102069736  0.8520512226969004  0.32476172782480717  1.0000
  Ca  Ca2       1.0  0.3813249049708247  0.14256019843742251  0.28876511473208666  1.0000
  P   P1        1.0  0.40555637376382947  0.8509478429332376  0.7945764970500022  1.0000
  P   P2        1.0  0.38052013237029314  0.5586915629683062  0.22518760975799523  1.0000
  H   H1        1.0  0.30841673677787185  0.5722266379743814  0.8908017389476299  1.0000
  H   H2        1.0  0.48255764634814113  0.3565378326456994  0.2632712619379163  1.0000
  H   H3        1.0  0.6603096995968372  0.7677098261192441  0.2805096432566643  1.0000
  H   H4        1.0  0.03508865868207067  0.5416167185176164  0.43193757196422666  1.0000
  H   H5        1.0  0.869367491453886  0.786777701228857  0.13299062103033066  1.0000
  H   H6        1.0  0.9826337993727066  0.8861286684405059  0.6858611132483929  1.0000
  H   H7        1.0  0.4272683506133035  0.7555262815440074  0.41904463013634086  1.0000
  H   H8        1.0  0.5976515556685627  0.7315355902537704  0.5550444295804482  1.0000
  O   O1        1.0  0.7426514255348593  0.18689740530680865  0.694878899725154  1.0000
  O   O2        1.0  0.19820686210732674  0.011305441294098273  0.19448696888866834  1.0000
  O   O3        1.0  0.9874614078938748  0.5029020441725152  0.07032947451807559  1.0000
  O   O4        1.0  0.05235984537284821  0.4871085851918906  0.8961383923888206  1.0000
  O   O5        1.0  0.4700903072953224  0.16015781555324793  0.11291464042733423  1.0000
  O   O6        1.0  0.385034760547569  0.23706783959642053  0.6929459618404508  1.0000
  O   O7        1.0  0.9641353932383936  0.854066121741198  0.6086042756214738  1.0000
  O   O8        1.0  0.16728660051012412  0.6334248022176325  0.010029945056885481  1.0000
  O   O9        1.0  0.5687211368895078  0.9749303396383766  0.22984755015932024  1.0000
  O   O10       1.0  0.6185438108186645  0.23632040290976875  0.6544775223810575  1.0000
  F   F1        1.0  0.9600432864390314  0.8465082281036302  0.0700273122638464  1.0000
  F   F2        1.0  0.672805349342525  0.1827232390642166  0.8612522007897496  1.0000
data_image63
_chemical_formula_structural       Ca2P2H8O10F2
_chemical_formula_sum              "Ca2 P2 H8 O10 F2"
_cell_length_a       8.748547242261026
_cell_length_b       6.5292717768421165
_cell_length_c       5.804229554730758
_cell_angle_alpha    118.85637513684739
_cell_angle_beta     110.64940913561757
_cell_angle_gamma    94.26336680621436

_space_group_name_H-M_alt    "P 1"
_space_group_IT_number       1

loop_
  _space_group_symop_operation_xyz
  'x, y, z'

loop_
  _atom_site_type_symbol
  _atom_site_label
  _atom_site_symmetry_multiplicity
  _atom_site_fract_x
  _atom_site_fract_y
  _atom_site_fract_z
  _atom_site_occupancy
  Ca  Ca1       1.0  0.06384102627635002  0.03592181671410799  0.383097477722913  1.0000
  Ca  Ca2       1.0  0.9030889514833689  0.48583005415275693  0.019111916422843933  1.0000
  P   P1        1.0  0.6433691820129752  0.8634925312362611  0.3265403565019369  1.0000
  P   P2        1.0  0.3348874761722982  0.1394027634523809  0.9617787367897108  1.0000
  H   H1        1.0  0.9658585495781153  0.1456178892403841  0.2450877157971263  1.0000
  H   H2        1.0  0.6997167347872164  0.0779729860369116  0.16846718359738588  1.0000
  H   H3        1.0  0.6168815563432872  0.6953843450173736  0.18654996156692505  1.0000
  H   H4        1.0  0.9202729252865538  0.24373026005923748  0.19282153982203454  1.0000
  H   H5        1.0  0.8730256464332342  0.0918310135602951  0.02573050558567047  1.0000
  H   H6        1.0  0.952609947475139  0.06980424968060106  0.6774989587720484  1.0000
  H   H7        1.0  0.2933438532636501  0.7303934821393341  0.6632949211634696  1.0000
  H   H8        1.0  0.6222271737642586  0.47936920961365104  0.4111221128841862  1.0000
  O   O1        1.0  0.6819602992618456  0.7458506777184084  0.5675903130322695  1.0000
  O   O2        1.0  0.6889241536191548  0.6823205309628975  0.42942013769061305  1.0000
  O   O3        1.0  0.32693100315918855  0.2873000022373162  0.17219130447119824  1.0000
  O   O4        1.0  0.5845054077217355  0.7674843561835587  0.12923967884853482  1.0000
  O   O5        1.0  0.16358839720487595  0.2410649007651955  0.7167903877561912  1.0000
  O   O6        1.0  0.6141897538909689  0.3065541728865355  0.3781000261660665  1.0000
  O   O7        1.0  0.15290560286666732  0.2561665580724366  0.03160445173853077  1.0000
  O   O8        1.0  0.4974429905996658  0.14466886909212917  0.5002085496671498  1.0000
  O   O9        1.0  0.8978060532572272  0.04616496371454559  0.712461101997178  1.0000
  O   O10       1.0  0.24173428134963615  0.8937033879337832  0.41274230991257355  1.0000
  F   F1        1.0  0.6684707757085562  0.6995682028646115  0.7176949572749436  1.0000
  F   F2        1.0  0.18912400165572762  0.2341267066076398  0.9808506332337856  1.0000
data_image64
_chemical_formula_structural       Ca2P2H8O10F2
_chemical_formula_sum              "Ca2 P2 H8 O10 F2"
_cell_length_a       8.748547242261026
_cell_length_b       6.5292717768421165
_cell_length_c       5.804229554730758
_cell_angle_alpha    118.85637513684739
_cell_angle_beta     110.64940913561757
_cell_angle_gamma    94.26336680621436

_space_group_name_H-M_alt    "P 1"
_space_group_IT_number       1

loop_
  _space_group_symop_operation_xyz
  'x, y, z'

loop_
  _atom_site_type_symbol
  _atom_site_label
  _atom_site_symmetry_multiplicity
  _atom_site_fract_x
  _atom_site_fract_y
  _atom_site_fract_z
  _atom_site_occupancy
  Ca  Ca1       1.0  0.4815195593982935  0.9916769042611122  0.06373065058141947  1.0000
  Ca  Ca2       1.0  0.8116637887433171  0.7570026107132435  0.7098537012934685  1.0000
  P   P1        1.0  0.6472800250630826  0.2663453035056591  0.2164211180061102  1.0000
  P   P2        1.0  0.3705804720520973  0.20710235461592674  0.6961732200579718  1.0000
  H   H1        1.0  0.8071367389056832  0.17583212908357382  0.35936490586027503  1.0000
  H   H2        1.0  0.37192470097215846  0.20325248455628753  0.6969779734499753  1.0000
  H   H3        1.0  0.26399784232489765  0.8417715979740024  0.6011212412267923  1.0000
  H   H4        1.0  0.5661638377932832  0.7912900812225416  0.2688504889374599  1.0000
  H   H5        1.0  0.3190135043114424  0.3369273729622364  0.1548939272761345  1.0000
  H   H6        1.0  0.9421781359706074  0.9398851878941059  0.006260833237320185  1.0000
  H   H7        1.0  0.1712518526474014  0.8612773675704375  0.31125183030962944  1.0000
  H   H8        1.0  0.7379541883710772  0.9976318143308163  0.4005997017666232  1.0000
  O   O1        1.0  0.603558421949856  0.5139016314642504  0.15084820007905364  1.0000
  O   O2        1.0  0.9843725743485265  0.7605618899106048  0.49368557397974655  1.0000
  O   O3        1.0  0.8557787493755313  0.46150532864703564  0.892994812883444  1.0000
  O   O4        1.0  0.8298940913518891  0.4741274400148541  0.6732432586140931  1.0000
  O   O5        1.0  0.9318082751706243  0.9263660083524883  0.23292436636984348  1.0000
  O   O6        1.0  0.7221676748013124  0.32651536096818745  0.4991584997624159  1.0000
  O   O7        1.0  0.47601308513549156  0.43503089225851  0.38652142795035616  1.0000
  O   O8        1.0  0.9962313399882987  0.8751386833610013  0.5398433841764927  1.0000
  O   O9        1.0  0.24020661312897573  0.7381876666040625  0.9418038229923695  1.0000
  O   O10       1.0  0.5758546584402211  0.6667737057432532  0.7917893286794424  1.0000
  F   F1        1.0  0.5578592210076749  0.9484449941664934  0.7575354031287134  1.0000
  F   F2        1.0  0.649029980879277  0.1469167759642005  0.043212514370679855  1.0000
data_image65
_chemical_formula_structural       Ca2P2H8O10F2
_chemical_formula_sum              "Ca2 P2 H8 O10 F2"
_cell_length_a       8.748547242261026
_cell_length_b       6.5292717768421165
_cell_length_c       5.804229554730758
_cell_angle_alpha    118.85637513684739
_cell_angle_beta     110.64940913561757
_cell_angle_gamma    94.26336680621436

_space_group_name_H-M_alt    "P 1"
_space_group_IT_number       1

loop_
  _space_group_symop_operation_xyz
  'x, y, z'

loop_
  _atom_site_type_symbol
  _atom_site_label
  _atom_site_symmetry_multiplicity
  _atom_site_fract_x
  _atom_site_fract_y
  _atom_site_fract_z
  _atom_site_occupancy
  Ca  Ca1       1.0  0.3649367489852011  0.8404368134215474  0.32989348797127604  1.0000
  Ca  Ca2       1.0  0.6550783952698112  0.49997956585139036  0.7219920016359538  1.0000
  P   P1        1.0  0.4499348048120737  0.8993067243136466  0.8718938692472875  1.0000
  P   P2        1.0  0.40157027600798756  0.48319449555128813  0.7615230237133801  1.0000
  H   H1        1.0  0.9971566032618284  0.42972793709486723  0.7032834929414093  1.0000
  H   H2        1.0  0.09397012743283994  0.1659729804378003  0.3688817140646279  1.0000
  H   H3        1.0  0.21325756795704365  0.9041747506707907  0.7373827677220106  1.0000
  H   H4        1.0  0.9473663398530334  0.638506188406609  0.2462581692961976  1.0000
  H   H5        1.0  0.258691668510437  0.010903120040893555  0.8192247226834297  1.0000
  H   H6        1.0  0.831106435332913  0.9387278372887522  0.7967936748173088  1.0000
  H   H7        1.0  0.4348085605306551  0.7822966238163644  0.8046079627238214  1.0000
  H   H8        1.0  0.10698524094186723  0.30199250811710954  0.3713471579394536  1.0000
  O   O1        1.0  0.7285480563296005  0.7700827469816431  0.11242769844830036  1.0000
  O   O2        1.0  0.9486370446793444  0.4079657179390779  0.6339933192357421  1.0000
  O   O3        1.0  0.8835662967649114  0.9041460801654466  0.2287604625835229  1.0000
  O   O4        1.0  0.13260629455908202  0.24647972080856562  0.2808720599859953  1.0000
  O   O5        1.0  0.4781330800615251  0.31383517081849277  0.2981913649709895  1.0000
  O   O6        1.0  0.9392531532939756  0.7096549263224006  0.8559160442091525  1.0000
  O   O7        1.0  0.828504345350666  0.07120176957687363  0.23780948895728216  1.0000
  O   O8        1.0  0.7837501423782669  0.6992909635882825  0.18859027791768312  1.0000
  O   O9        1.0  0.15406777650787262  0.06667616195045412  0.1611189178947825  1.0000
  O   O10       1.0  0.07562075591704343  0.2490357609349303  0.929684838920366  1.0000
  F   F1        1.0  0.2799861039966345  0.9958639832912013  0.8152248885016888  1.0000
  F   F2        1.0  0.03986387234181166  0.47226382791996  0.48241347819566727  1.0000
data_image66
_chemical_formula_structural       Ca2P2H8O10F2
_chemical_formula_sum              "Ca2 P2 H8 O10 F2"
_cell_length_a       8.748547242261026
_cell_length_b       6.5292717768421165
_cell_length_c       5.804229554730758
_cell_angle_alpha    118.85637513684739
_cell_angle_beta     110.64940913561757
_cell_angle_gamma    94.26336680621436

_space_group_name_H-M_alt    "P 1"
_space_group_IT_number       1

loop_
  _space_group_symop_operation_xyz
  'x, y, z'

loop_
  _atom_site_type_symbol
  _atom_site_label
  _atom_site_symmetry_multiplicity
  _atom_site_fract_x
  _atom_site_fract_y
  _atom_site_fract_z
  _atom_site_occupancy
  Ca  Ca1       1.0  0.9689024335239083  0.5915700634941459  0.4776637917384505  1.0000
  Ca  Ca2       1.0  0.004505101591348648  0.28564054518938065  0.10767024900997058  1.0000
  P   P1        1.0  0.19229910126887262  0.8577018724754453  0.37675322382710874  1.0000
  P   P2        1.0  0.9678939604200423  0.8827272579073906  0.5591768608428538  1.0000
  H   H1        1.0  0.36704925214871764  0.27682180516421795  0.8124468321911991  1.0000
  H   H2        1.0  0.8464164071338018  0.6261568774934858  0.06896573305130005  1.0000
  H   H3        1.0  0.4190226730424911  0.9878394352272153  0.86948855035007  1.0000
  H   H4        1.0  0.5257405139273033  0.39715446322225034  0.35875596501864493  1.0000
  H   H5        1.0  0.6747178724035621  0.9156795330345631  0.23620381206274033  1.0000
  H   H6        1.0  0.7216731959488243  0.6512504750862718  0.5042954909149557  1.0000
  H   H7        1.0  0.14034939859993756  0.49112555340252584  0.0017596296966075897  1.0000
  H   H8        1.0  0.5212683537974954  0.09922322165220976  0.9637236147536896  1.0000
  O   O1        1.0  0.9244411950930953  0.4130731144687161  0.9362249954137951  1.0000
  O   O2        1.0  0.26282446566074213  0.014661670837085694  0.019622060062829405  1.0000
  O   O3        1.0  0.05965576045855414  0.6452144734248577  0.8499864136374526  1.0000
  O   O4        1.0  0.09503918088739738  0.8781820735894144  0.06153470277786255  1.0000
  O   O5        1.0  0.3477392918430269  0.006915213773027062  0.3009500086773187  1.0000
  O   O6        1.0  0.7379261161695467  0.018199105747044086  0.8440382252447307  1.0000
  O   O7        1.0  0.914692537044175  0.07610901043517515  0.3462815533275716  1.0000
  O   O8        1.0  0.6283128293580376  0.14904016605578363  0.1045463620685041  1.0000
  O   O9        1.0  0.7748714316621772  0.830428864544956  0.7127707492327318  1.0000
  O   O10       1.0  0.6874823224643478  0.33754185744328424  0.007717571570537984  1.0000
  F   F1        1.0  0.9600322972983122  0.46432287292554975  0.20243711571674794  1.0000
  F   F2        1.0  0.8644909453578293  0.26542317494750023  0.13594952784478664  1.0000
data_image67
_chemical_formula_structural       Ca2P2H8O10F2
_chemical_formula_sum              "Ca2 P2 H8 O10 F2"
_cell_length_a       8.748547242261026
_cell_length_b       6.5292717768421165
_cell_length_c       5.804229554730758
_cell_angle_alpha    118.85637513684739
_cell_angle_beta     110.64940913561757
_cell_angle_gamma    94.26336680621436

_space_group_name_H-M_alt    "P 1"
_space_group_IT_number       1

loop_
  _space_group_symop_operation_xyz
  'x, y, z'

loop_
  _atom_site_type_symbol
  _atom_site_label
  _atom_site_symmetry_multiplicity
  _atom_site_fract_x
  _atom_site_fract_y
  _atom_site_fract_z
  _atom_site_occupancy
  Ca  Ca1       1.0  0.5112511460902169  0.2376522896811366  0.6905541280284524  1.0000
  Ca  Ca2       1.0  0.44717162707820535  0.12496537249535322  0.303651150316  1.0000
  P   P1        1.0  0.5770538430660963  0.0028741443529725075  0.830338021973148  1.0000
  P   P2        1.0  0.9222934788558632  0.6700230375863612  0.9828692339360714  1.0000
  H   H1        1.0  0.5119745819829404  0.3364908490329981  0.460635953117162  1.0000
  H   H2        1.0  0.976407964786631  0.7214200305752456  0.9369050292298198  1.0000
  H   H3        1.0  0.14750989293679595  0.3334943577647209  0.8927785139530897  1.0000
  H   H4        1.0  0.9910731192212552  0.017663867212831974  0.15816772321704775  1.0000
  H   H5        1.0  0.6963778752833605  0.16834617778658867  0.5851878896355629  1.0000
  H   H6        1.0  0.2671968344366178  0.07023825607029721  0.2800403446890414  1.0000
  H   H7        1.0  0.07260826835408807  0.42113175262056757  0.3872527852654457  1.0000
  H   H8        1.0  0.5285658831708133  0.2788171712309122  0.3153751239005942  1.0000
  O   O1        1.0  0.7257860316894948  0.13157226296607405  0.573080001398921  1.0000
  O   O2        1.0  0.28424644522965536  0.9268406991759548  0.11894849894451909  1.0000
  O   O3        1.0  0.400499716939521  0.9938696195386001  0.37143330397520913  1.0000
  O   O4        1.0  0.9896125166974343  0.157141107134521  0.6620085393078625  1.0000
  O   O5        1.0  0.8698566313832998  0.7634122828021646  0.3074918014463037  1.0000
  O   O6        1.0  0.015227034033159725  0.3264576639048755  0.8754087216220796  1.0000
  O   O7        1.0  0.8938628269825131  0.15055888635106385  0.6358872413402423  1.0000
  O   O8        1.0  0.7800168983521871  0.6566208227304742  0.9907665455248207  1.0000
  O   O9        1.0  0.13834920456429245  0.3826839452085551  0.49206980896997266  1.0000
  O   O10       1.0  0.012453448522137478  0.7003418194362894  0.6220011943951249  1.0000
  F   F1        1.0  0.3510496895760298  0.5097277055028826  0.6525866758311167  1.0000
  F   F2        1.0  0.12870089570060372  0.6752990409731865  0.9231028184294701  1.0000
data_image68
_chemical_formula_structural       Ca2P2H8O10F2
_chemical_formula_sum              "Ca2 P2 H8 O10 F2"
_cell_length_a       8.748547242261026
_cell_length_b       6.5292717768421165
_cell_length_c       5.804229554730758
_cell_angle_alpha    118.85637513684739
_cell_angle_beta     110.64940913561757
_cell_angle_gamma    94.26336680621436

_space_group_name_H-M_alt    "P 1"
_space_group_IT_number       1

loop_
  _space_group_symop_operation_xyz
  'x, y, z'

loop_
  _atom_site_type_symbol
  _atom_site_label
  _atom_site_symmetry_multiplicity
  _atom_site_fract_x
  _atom_site_fract_y
  _atom_site_fract_z
  _atom_site_occupancy
  Ca  Ca1       1.0  0.18933731329161674  0.7696414375677705  0.4736736589111388  1.0000
  Ca  Ca2       1.0  0.6190627249889076  0.08102778159081936  0.6371657855343074  1.0000
  P   P1        1.0  0.9151137936860323  0.389998662751168  0.3327696530614048  1.0000
  P   P2        1.0  0.25431630364619195  0.0317525970749557  0.27517567947506905  1.0000
  H   H1        1.0  0.35825508274137974  0.5223713694140315  0.7428606213070452  1.0000
  H   H2        1.0  0.6750357658020221  0.95813237153925  0.5056660319678485  1.0000
  H   H3        1.0  0.755942105082795  0.5367889497429132  0.06922855414450169  1.0000
  H   H4        1.0  0.08487167523708194  0.7409886649111286  0.006624331348575652  1.0000
  H   H5        1.0  0.9850406339392066  0.10258675739169121  0.34972184896469116  1.0000
  H   H6        1.0  0.6571008476312272  0.6256943732732907  0.5955668864771724  1.0000
  H   H7        1.0  0.9999040283728391  0.10553557857201668  0.13651211792603135  1.0000
  H   H8        1.0  0.24748755828477442  0.2403462352231145  0.7074473740067333  1.0000
  O   O1        1.0  0.12261025910265744  0.817254964960739  0.0448425579816103  1.0000
  O   O2        1.0  0.17491118393081706  0.8192461631551851  0.20520069968188182  1.0000
  O   O3        1.0  0.18775982179067796  0.947451109164831  0.726058359405215  1.0000
  O   O4        1.0  0.15319467387598706  0.13152129901573062  0.5750930872745812  1.0000
  O   O5        1.0  0.3088439479470253  0.990826717345044  0.14909204200375825  1.0000
  O   O6        1.0  0.3499557018803898  0.5075026055565104  0.23034256347455084  1.0000
  O   O7        1.0  0.9592517161509022  0.4920211475691758  0.23141340841539204  1.0000
  O   O8        1.0  0.811265294731129  0.800236064591445  0.7850642357952893  1.0000
  O   O9        1.0  0.7042365210436401  0.00209901956259273  0.17802037112414837  1.0000
  O   O10       1.0  0.12752284797170432  0.3281110860989429  0.4139073870610446  1.0000
  F   F1        1.0  0.36818124912679195  0.39320951350964606  0.5732525347848423  1.0000
  F   F2        1.0  0.6482994565740228  0.5049078753218055  0.6964383702725172  1.0000
data_image69
_chemical_formula_structural       Ca2P2H8O10F2
_chemical_formula_sum              "Ca2 P2 H8 O10 F2"
_cell_length_a       8.748547242261026
_cell_length_b       6.5292717768421165
_cell_length_c       5.804229554730758
_cell_angle_alpha    118.85637513684739
_cell_angle_beta     110.64940913561757
_cell_angle_gamma    94.26336680621436

_space_group_name_H-M_alt    "P 1"
_space_group_IT_number       1

loop_
  _space_group_symop_operation_xyz
  'x, y, z'

loop_
  _atom_site_type_symbol
  _atom_site_label
  _atom_site_symmetry_multiplicity
  _atom_site_fract_x
  _atom_site_fract_y
  _atom_site_fract_z
  _atom_site_occupancy
  Ca  Ca1       1.0  0.565343028283678  0.4572488786652684  0.9732437827624381  1.0000
  Ca  Ca2       1.0  0.5132898115552962  0.5258848126977682  0.6948291109874845  1.0000
  P   P1        1.0  0.3837840973865241  0.6881266464479268  0.3246654304675758  1.0000
  P   P2        1.0  0.4345519286580384  0.2932158070616424  0.8933241865597665  1.0000
  H   H1        1.0  0.37018044106662273  0.9470365978777409  0.15516583528369665  1.0000
  H   H2        1.0  0.7007587690022774  0.9608017306309193  0.9314380902796984  1.0000
  H   H3        1.0  0.6731098820455372  0.26587139815092087  0.569092407822609  1.0000
  H   H4        1.0  0.03563354059588164  0.858573030680418  0.6308220650535077  1.0000
  H   H5        1.0  0.17590644117444754  0.6845401413738728  0.7694760337471962  1.0000
  H   H6        1.0  0.13333825548761524  0.7678351653157733  0.5237884325906634  1.0000
  H   H7        1.0  0.6540991000365466  0.2659371368063148  0.9207763988524675  1.0000
  H   H8        1.0  0.38026038254611194  0.8142093606293201  0.2792712652008049  1.0000
  O   O1        1.0  0.7337610962567851  0.28566718206275254  0.7005892188753933  1.0000
  O   O2        1.0  0.4540120460551407  0.050111391123209614  0.29449169349391013  1.0000
  O   O3        1.0  0.8538960605897046  0.030893669249053346  0.7504178423478152  1.0000
  O   O4        1.0  0.18503011080156284  0.016070930752903223  0.5377518278546631  1.0000
  O   O5        1.0  0.7363918623887002  0.8396953288465738  0.08062177209649235  1.0000
  O   O6        1.0  0.8764579542330466  0.044049581862054765  0.5557201527990401  1.0000
  O   O7        1.0  0.9471241417923011  0.9817932790610939  0.13135298230918124  1.0000
  O   O8        1.0  0.9051107421400957  0.4189822154585272  0.04779006773605943  1.0000
  O   O9        1.0  0.9942472632101271  0.7343461853452027  0.6445491298800334  1.0000
  O   O10       1.0  0.8447577134611493  0.4736104679177515  0.5269710953580216  1.0000
  F   F1        1.0  0.5220263786613941  0.0009477309649810195  0.31433037482202053  1.0000
  F   F2        1.0  0.28422701731324196  0.990930032916367  0.5596176292747259  1.0000
data_image70
_chemical_formula_structural       Ca2P2H8O10F2
_chemical_formula_sum              "Ca2 P2 H8 O10 F2"
_cell_length_a       8.748547242261026
_cell_length_b       6.5292717768421165
_cell_length_c       5.804229554730758
_cell_angle_alpha    118.85637513684739
_cell_angle_beta     110.64940913561757
_cell_angle_gamma    94.26336680621436

_space_group_name_H-M_alt    "P 1"
_space_group_IT_number       1

loop_
  _space_group_symop_operation_xyz
  'x, y, z'

loop_
  _atom_site_type_symbol
  _atom_site_label
  _atom_site_symmetry_multiplicity
  _atom_site_fract_x
  _atom_site_fract_y
  _atom_site_fract_z
  _atom_site_occupancy
  Ca  Ca1       1.0  0.7800060630543157  0.6263140290975571  0.35102110635489225  1.0000
  Ca  Ca2       1.0  0.25720107136294246  0.3514193454757333  0.17407329473644495  1.0000
  P   P1        1.0  0.8584553364198655  0.2046111742965877  0.5563982520252466  1.0000
  P   P2        1.0  0.007786382921040058  0.26350192981772125  0.976989324670285  1.0000
  H   H1        1.0  0.31608064845204353  0.5468025086447597  0.46702123573049903  1.0000
  H   H2        1.0  0.8723771146251238  0.31547969835810363  0.6304307682439685  1.0000
  H   H3        1.0  0.6665484113618731  0.13080063741654158  0.017592115327715874  1.0000
  H   H4        1.0  0.47296714840922505  0.9283442350570112  0.7785614954773337  1.0000
  H   H5        1.0  0.2919713696464896  0.31945953890681267  0.334507092833519  1.0000
  H   H6        1.0  0.9347146131913178  0.30004301929147914  0.8845790107734501  1.0000
  H   H7        1.0  0.02388929482549429  0.6295312633446883  0.9330155025236309  1.0000
  H   H8        1.0  0.3995591637212783  0.06115681491792202  0.4570168844074942  1.0000
  O   O1        1.0  0.13597655901685357  0.9726474484195933  0.0611765303183347  1.0000
  O   O2        1.0  0.5027297994201945  0.6632895185030065  0.5792575458181091  1.0000
  O   O3        1.0  0.4201429402364738  0.8195735206354584  0.21129728449159302  1.0000
  O   O4        1.0  0.6417530373319096  0.29263681685552  0.46080320701003075  1.0000
  O   O5        1.0  0.9729913058690727  0.6019878434017301  0.8880341071635485  1.0000
  O   O6        1.0  0.9763298372054123  0.5234026989201084  0.10577322263270617  1.0000
  O   O7        1.0  0.5184361066203564  0.6097263603005558  0.32939265470486134  1.0000
  O   O8        1.0  0.6940073073492385  0.764006923767738  0.8608486938755959  1.0000
  O   O9        1.0  0.12140853688833886  0.911371664959006  0.7573319053626619  1.0000
  O   O10       1.0  0.864963786865701  0.8772178866784088  0.9916831594891846  1.0000
  F   F1        1.0  0.16945925075560808  0.2021006690338254  0.5036958632990718  1.0000
  F   F2        1.0  0.09540398558601737  0.5856703808531165  0.6420841999351978  1.0000
data_image71
_chemical_formula_structural       Ca2P2H8O10F2
_chemical_formula_sum              "Ca2 P2 H8 O10 F2"
_cell_length_a       8.748547242261026
_cell_length_b       6.5292717768421165
_cell_length_c       5.804229554730758
_cell_angle_alpha    118.85637513684739
_cell_angle_beta     110.64940913561757
_cell_angle_gamma    94.26336680621436

_space_group_name_H-M_alt    "P 1"
_space_group_IT_number       1

loop_
  _space_group_symop_operation_xyz
  'x, y, z'

loop_
  _atom_site_type_symbol
  _atom_site_label
  _atom_site_symmetry_multiplicity
  _atom_site_fract_x
  _atom_site_fract_y
  _atom_site_fract_z
  _atom_site_occupancy
  Ca  Ca1       1.0  0.33170795044861734  0.8085217671468854  0.9756350298412144  1.0000
  Ca  Ca2       1.0  0.7084060190245509  0.17052048817276955  0.87367023807019  1.0000
  P   P1        1.0  0.29211668856441975  0.8881726285908371  0.8740495343226939  1.0000
  P   P2        1.0  0.6726632039062679  0.9002385688945651  0.38052508560940623  1.0000
  H   H1        1.0  0.309653450967744  0.14777646493166685  0.3735186127014458  1.0000
  H   H2        1.0  0.10412631137296557  0.9521495059598237  0.9274754775688052  1.0000
  H   H3        1.0  0.386094253975898  0.2760442830622196  0.909531993791461  1.0000
  H   H4        1.0  0.05647255096118897  0.4042474599555135  0.6139865057775751  1.0000
  H   H5        1.0  0.40511151496320963  0.3296267092227936  0.4064831808209419  1.0000
  H   H6        1.0  0.209705168614164  0.9203130177920684  0.28474818635731936  1.0000
  H   H7        1.0  0.15606305841356516  0.7684875559352804  0.23113481234759092  1.0000
  H   H8        1.0  0.884153007529676  0.9879047479480505  0.5155534413643181  1.0000
  O   O1        1.0  0.08114416885655373  0.4228977606398985  0.42215699632652104  1.0000
  O   O2        1.0  0.6595068124224781  0.7576844362120028  0.26096570954541676  1.0000
  O   O3        1.0  0.01609988437849097  0.9390916404881864  0.6846903730474878  1.0000
  O   O4        1.0  0.7108543636550166  0.6211251365020871  0.1342541752383113  1.0000
  O   O5        1.0  0.7603311743587255  0.8129023949149996  0.6725801946595311  1.0000
  O   O6        1.0  0.7641269555024337  0.5221296993549913  0.7886188009288162  1.0000
  O   O7        1.0  0.9327374465065077  0.5750812103506178  0.30165950942318887  1.0000
  O   O8        1.0  0.9400914632715285  0.07719681016169488  0.4931290673557669  1.0000
  O   O9        1.0  0.7899696565946215  0.40604899410391226  0.6049812638084404  1.0000
  O   O10       1.0  0.31086788870743476  0.8782850960851647  0.8249247773783281  1.0000
  F   F1        1.0  0.37262927647680044  0.9947831545141526  0.1113980570808053  1.0000
  F   F2        1.0  0.5921413330361247  0.6355946073308587  0.1768213864415884  1.0000
data_image72
_chemical_formula_structural       Ca2P2H8O10F2
_chemical_formula_sum              "Ca2 P2 H8 O10 F2"
_cell_length_a       8.748547242261026
_cell_length_b       6.5292717768421165
_cell_length_c       5.804229554730758
_cell_angle_alpha    118.85637513684739
_cell_angle_beta     110.64940913561757
_cell_angle_gamma    94.26336680621436

_space_group_name_H-M_alt    "P 1"
_space_group_IT_number       1

loop_
  _space_group_symop_operation_xyz
  'x, y, z'

loop_
  _atom_site_type_symbol
  _atom_site_label
  _atom_site_symmetry_multiplicity
  _atom_site_fract_x
  _atom_site_fract_y
  _atom_site_fract_z
  _atom_site_occupancy
  Ca  Ca1       1.0  0.6350295301526785  0.4205438429489732  0.7600816953927279  1.0000
  Ca  Ca2       1.0  0.5431808247230947  0.9776216438040137  0.8903199099004269  1.0000
  P   P1        1.0  0.269837232073769  0.06366929458454251  0.09541279496625066  1.0000
  P   P2        1.0  0.20475098956376314  0.5353581693489105  0.45462056528776884  1.0000
  H   H1        1.0  0.3775296462699771  0.25080060213804245  0.5286141005344689  1.0000
  H   H2        1.0  0.011744370036467444  0.4856938060838729  0.5271215136162937  1.0000
  H   H3        1.0  0.6946346112526953  0.11265318840742111  0.6575019359588623  1.0000
  H   H4        1.0  0.6244550234114286  0.8766410034149885  0.8916980531648733  1.0000
  H   H5        1.0  0.13689904939383268  0.043054357171058655  0.6108810156583786  1.0000
  H   H6        1.0  0.6160421624663286  0.29171484179096296  0.7750995201058686  1.0000
  H   H7        1.0  0.22249384794849902  0.45752010866999626  0.2128650490194559  1.0000
  H   H8        1.0  0.45790658332407475  0.9823156241327524  0.2013020676386077  1.0000
  O   O1        1.0  0.637589477468282  0.2031093876576051  0.471295663388446  1.0000
  O   O2        1.0  0.16631335852798657  0.7001815257099224  0.24421237517526606  1.0000
  O   O3        1.0  0.8258313364494825  0.0182109072629828  0.36663637234596536  1.0000
  O   O4        1.0  0.4172495825396254  0.6894185799174011  0.5011375918984413  1.0000
  O   O5        1.0  0.34566946839913726  0.21722814277745783  0.5235775281907991  1.0000
  O   O6        1.0  0.7638655287591973  0.6988287094281986  0.13984398217871785  1.0000
  O   O7        1.0  0.8465989385731518  0.21713557018665597  0.36257573135662824  1.0000
  O   O8        1.0  0.00999284494901076  0.30628251703456044  0.34372071805410087  1.0000
  O   O9        1.0  0.137923777117976  0.7982602907286491  0.17862300321576186  1.0000
  O   O10       1.0  0.34956998525740346  0.1813878061948344  0.667868492892012  1.0000
  F   F1        1.0  0.1260120877996087  0.7634154811385088  0.01598529377952218  1.0000
  F   F2        1.0  0.7538182814605534  0.2428690055385232  0.9972501210868359  1.0000
data_image73
_chemical_formula_structural       Ca2P2H8O10F2
_chemical_formula_sum              "Ca2 P2 H8 O10 F2"
_cell_length_a       8.748547242261026
_cell_length_b       6.5292717768421165
_cell_length_c       5.804229554730758
_cell_angle_alpha    118.85637513684739
_cell_angle_beta     110.64940913561757
_cell_angle_gamma    94.26336680621436

_space_group_name_H-M_alt    "P 1"
_space_group_IT_number       1

loop_
  _space_group_symop_operation_xyz
  'x, y, z'

loop_
  _atom_site_type_symbol
  _atom_site_label
  _atom_site_symmetry_multiplicity
  _atom_site_fract_x
  _atom_site_fract_y
  _atom_site_fract_z
  _atom_site_occupancy
  Ca  Ca1       1.0  0.7642846324015409  0.9174737278372049  0.6653943066485226  1.0000
  Ca  Ca2       1.0  0.9206132749095559  0.27101842034608126  0.7696307317819446  1.0000
  P   P1        1.0  0.7451215779874474  0.6048667286522686  0.0348946840967983  1.0000
  P   P2        1.0  0.10232752840965986  0.7031635737512261  0.3679504608735442  1.0000
  H   H1        1.0  0.37249632528983057  0.13728017546236515  0.5191537900827825  1.0000
  H   H2        1.0  0.7161326279456262  0.09669009526260197  0.5463390713557601  1.0000
  H   H3        1.0  0.7857508440501988  0.25203018356114626  0.053051067516207695  1.0000
  H   H4        1.0  0.43070941502810456  0.14152356842532754  0.9177516406289215  1.0000
  H   H5        1.0  0.23678508028388023  0.4221247136592865  0.34182487428188324  1.0000
  H   H6        1.0  0.791368346544914  0.9638785510323942  0.06613176083192229  1.0000
  H   H7        1.0  0.1297989885788411  0.32404022850096226  0.8635077187791467  1.0000
  H   H8        1.0  0.8667595377191901  0.3632225110195577  0.699079922051169  1.0000
  O   O1        1.0  0.7610745106358081  0.03058487642556429  0.6523691925685853  1.0000
  O   O2        1.0  0.9329329868269269  0.6043376328452723  0.8853987000911729  1.0000
  O   O3        1.0  0.7824138428622973  0.3048678265840863  0.15954365803918336  1.0000
  O   O4        1.0  0.0797528247039736  0.9779453021474183  0.4999202908948064  1.0000
  O   O5        1.0  0.5408089095726609  0.6713664925191551  0.7689355816692114  1.0000
  O   O6        1.0  0.679301021489664  0.03669447032734752  0.9486677898094058  1.0000
  O   O7        1.0  0.01466442144010216  0.3220517839072272  0.2459952535573393  1.0000
  O   O8        1.0  0.4069218797958456  0.7905672010965645  0.16657920298166573  1.0000
  O   O9        1.0  0.18595484625257086  0.3754121908568777  0.3068711489031557  1.0000
  O   O10       1.0  0.5497933675251261  0.6040782856289297  0.9236088196048513  1.0000
  F   F1        1.0  0.7941192463040352  0.3252857673942344  0.5512398076243699  1.0000
  F   F2        1.0  0.5857150848023593  0.2103216117247939  0.9800293892621994  1.0000
data_image74
_chemical_formula_structural       Ca2P2H8O10F2
_chemical_formula_sum              "Ca2 P2 H8 O10 F2"
_cell_length_a       8.748547242261026
_cell_length_b       6.5292717768421165
_cell_length_c       5.804229554730758
_cell_angle_alpha    118.85637513684739
_cell_angle_beta     110.64940913561757
_cell_angle_gamma    94.26336680621436

_space_group_name_H-M_alt    "P 1"
_space_group_IT_number       1

loop_
  _space_group_symop_operation_xyz
  'x, y, z'

loop_
  _atom_site_type_symbol
  _atom_site_label
  _atom_site_symmetry_multiplicity
  _atom_site_fract_x
  _atom_site_fract_y
  _atom_site_fract_z
  _atom_site_occupancy
  Ca  Ca1       1.0  0.044635763857513666  0.03561343438923359  0.5961829433217645  1.0000
  Ca  Ca2       1.0  0.970171841327101  0.13041179720312357  0.4011711524799466  1.0000
  P   P1        1.0  0.48758051870390773  0.8512387098744512  0.562347715254873  1.0000
  P   P2        1.0  0.05076001910492778  0.2735355757176876  0.06913593597710133  1.0000
  H   H1        1.0  0.8093598634004593  0.24698313605040312  0.30883625289425254  1.0000
  H   H2        1.0  0.7024325988459168  0.18995363684371114  0.14874400105327368  1.0000
  H   H3        1.0  0.8518486432731152  0.3220211286097765  0.06706630811095238  1.0000
  H   H4        1.0  0.8382729532022495  0.4537437192630023  0.480988122169947  1.0000
  H   H5        1.0  0.1455777743831277  0.5755581520497799  0.9264422133564949  1.0000
  H   H6        1.0  0.2605314560350962  0.8289144379086792  0.2408011518418789  1.0000
  H   H7        1.0  0.10163059690967202  0.9631951755145565  0.29188713897019625  1.0000
  H   H8        1.0  0.16532864631153643  0.37546042958274484  0.018387494084890932  1.0000
  O   O1        1.0  0.9585836320184171  0.5198935387888923  0.31694557424634695  1.0000
  O   O2        1.0  0.5337412730877986  0.23401034019479994  0.3052794944233028  1.0000
  O   O3        1.0  0.8206022795275203  0.29411268010153435  0.3393317639711313  1.0000
  O   O4        1.0  0.6694391866712976  0.15878506051376462  0.4594679302535951  1.0000
  O   O5        1.0  0.580080364830792  0.386569588445127  0.4153921885881573  1.0000
  O   O6        1.0  0.2060768523660954  0.3406575225526467  0.4999854010529816  1.0000
  O   O7        1.0  0.9062784246634692  0.6346899935160764  0.15512129256967455  1.0000
  O   O8        1.0  0.1394451609812677  0.617872974020429  0.8672253030817956  1.0000
  O   O9        1.0  0.6597929822783044  0.6440964313223958  0.16701644205022603  1.0000
  O   O10       1.0  0.9111719768661715  0.08357417967636138  0.12870798399671912  1.0000
  F   F1        1.0  0.7450211038812995  0.6400049177900655  0.3352873183321208  1.0000
  F   F2        1.0  0.05934720207005739  0.31475811544805765  0.7242314219474792  1.0000
data_image75
_chemical_formula_structural       Ca2P2H8O10F2
_chemical_formula_sum              "Ca2 P2 H8 O10 F2"
_cell_length_a       8.748547242261026
_cell_length_b       6.5292717768421165
_cell_length_c       5.804229554730758
_cell_angle_alpha    118.85637513684739
_cell_angle_beta     110.64940913561757
_cell_angle_gamma    94.26336680621436

_space_group_name_H-M_alt    "P 1"
_space_group_IT_number       1

loop_
  _space_group_symop_operation_xyz
  'x, y, z'

loop_
  _atom_site_type_symbol
  _atom_site_label
  _atom_site_symmetry_multiplicity
  _atom_site_fract_x
  _atom_site_fract_y
  _atom_site_fract_z
  _atom_site_occupancy
  Ca  Ca1       1.0  0.4682955233147368  0.7851481037214398  0.7457132725976408  1.0000
  Ca  Ca2       1.0  0.6311104013584554  0.5152884665876627  0.4743680628016591  1.0000
  P   P1        1.0  0.38893656083382666  0.8212751988321543  0.27587605617009103  1.0000
  P   P2        1.0  0.19086823146790266  0.16798539855517447  0.49590881587937474  1.0000
  H   H1        1.0  0.4759869943372905  0.3464758237823844  0.23103448608890176  1.0000
  H   H2        1.0  0.10801479974907124  0.23522568261250854  0.3240572391077876  1.0000
  H   H3        1.0  0.5087389168329537  0.20362698659300804  0.7097296919673681  1.0000
  H   H4        1.0  0.867991597042419  0.7863964983262122  0.9162793714895088  1.0000
  H   H5        1.0  0.3953792080283165  0.6655327342450619  0.20734047144651413  1.0000
  H   H6        1.0  0.503322001779452  0.5371242469409481  0.6798360799439251  1.0000
  H   H7        1.0  0.37331090250518173  0.006162949022836983  0.8319435529410839  1.0000
  H   H8        1.0  0.5611484844703227  0.24858574429526925  0.05223735093022697  1.0000
  O   O1        1.0  0.3792598465224728  0.7142791403457522  0.15984467812813818  1.0000
  O   O2        1.0  0.592722555706132  0.3275137470191112  0.39526052679138957  1.0000
  O   O3        1.0  0.8838462371277274  0.05581845064079971  0.7317162882827688  1.0000
  O   O4        1.0  0.9630413971935923  0.6515539772808552  0.32980334013700485  1.0000
  O   O5        1.0  0.9568925416097045  0.23892229981720448  0.9805036826292053  1.0000
  O   O6        1.0  0.6200500938139157  0.40558628703001887  0.7090375409461558  1.0000
  O   O7        1.0  0.0730465748347342  0.15917478082701564  0.6267505894647911  1.0000
  O   O8        1.0  0.8885791637003422  0.6668685263721272  0.6421315120533109  1.0000
  O   O9        1.0  0.05920171400794061  0.6253368281759322  0.1911537963023875  1.0000
  O   O10       1.0  0.986973142647912  0.5946448515169322  0.713416529353708  1.0000
  F   F1        1.0  0.8101733019575477  0.2371795707877027  0.8010684852488339  1.0000
  F   F2        1.0  0.9474720237776637  0.4254950452595949  0.7262766696512699  1.0000
data_image76
_chemical_formula_structural       Ca2P2H8O10F2
_chemical_formula_sum              "Ca2 P2 H8 O10 F2"
_cell_length_a       8.748547242261026
_cell_length_b       6.5292717768421165
_cell_length_c       5.804229554730758
_cell_angle_alpha    118.85637513684739
_cell_angle_beta     110.64940913561757
_cell_angle_gamma    94.26336680621436

_space_group_name_H-M_alt    "P 1"
_space_group_IT_number       1

loop_
  _space_group_symop_operation_xyz
  'x, y, z'

loop_
  _atom_site_type_symbol
  _atom_site_label
  _atom_site_symmetry_multiplicity
  _atom_site_fract_x
  _atom_site_fract_y
  _atom_site_fract_z
  _atom_site_occupancy
  Ca  Ca1       1.0  0.2340221363119781  0.7122918954119086  0.12749179871752858  1.0000
  Ca  Ca2       1.0  0.7208247478120029  0.2550827506929636  0.33967627468518913  1.0000
  P   P1        1.0  0.4768747908528894  0.4780297528486699  0.8258945778943598  1.0000
  P   P2        1.0  0.2982186758890748  0.08247159537859261  0.9927553767338395  1.0000
  H   H1        1.0  0.08553694863803685  0.43296545930206776  0.40842552622780204  1.0000
  H   H2        1.0  0.051289360127157124  0.5249518055934459  0.3845408642664552  1.0000
  H   H3        1.0  0.9140546261332929  0.7429058877751231  0.5833298992365599  1.0000
  H   H4        1.0  0.3009979900380131  0.33159303991124034  0.7219535199728853  1.0000
  H   H5        1.0  0.6978137446567416  0.9145790264010429  0.3184841051697731  1.0000
  H   H6        1.0  0.9294755045557395  0.3571686212089844  0.7018189253285527  1.0000
  H   H7        1.0  0.9411836242070422  0.027184731094166636  0.45866213273257017  1.0000
  H   H8        1.0  0.19242895068600774  0.7631130181252956  0.742037246003747  1.0000
  O   O1        1.0  0.6583824007539079  0.9864280658075586  0.915326145477593  1.0000
  O   O2        1.0  0.5323717895407754  0.4033344633935485  0.683161180721072  1.0000
  O   O3        1.0  0.5978687156020897  0.8418743047132011  0.562935928319348  1.0000
  O   O4        1.0  0.9783100689164712  0.6493049925193191  0.6552309296093881  1.0000
  O   O5        1.0  0.3704947936348617  0.5902210271451622  0.5605128575116396  1.0000
  O   O6        1.0  0.2983446376019856  0.7561585166258737  0.05208634468726814  1.0000
  O   O7        1.0  0.47124531504232436  0.2812589146196842  0.6404583456460387  1.0000
  O   O8        1.0  0.2707344188238494  0.8763941366923973  0.9543823583517224  1.0000
  O   O9        1.0  0.9616189090738771  0.2861443170113489  0.4247352511738427  1.0000
  O   O10       1.0  0.6559918123639363  0.7893147035501897  0.010366339469328523  1.0000
  F   F1        1.0  0.6660614125430584  0.7228553129389184  0.6430420537944883  1.0000
  F   F2        1.0  0.4400200224481523  0.07949044089764357  0.9689731132239103  1.0000
data_image77
_chemical_formula_structural       Ca2P2H8O10F2
_chemical_formula_sum              "Ca2 P2 H8 O10 F2"
_cell_length_a       8.748547242261026
_cell_length_b       6.5292717768421165
_cell_length_c       5.804229554730758
_cell_angle_alpha    118.85637513684739
_cell_angle_beta     110.64940913561757
_cell_angle_gamma    94.26336680621436

_space_group_name_H-M_alt    "P 1"
_space_group_IT_number       1

loop_
  _space_group_symop_operation_xyz
  'x, y, z'

loop_
  _atom_site_type_symbol
  _atom_site_label
  _atom_site_symmetry_multiplicity
  _atom_site_fract_x
  _atom_site_fract_y
  _atom_site_fract_z
  _atom_site_occupancy
  Ca  Ca1       1.0  0.8023873209021986  0.40062187146395445  0.5858269701711833  1.0000
  Ca  Ca2       1.0  0.7373749045655131  0.415042657405138  0.8376419667620212  1.0000
  P   P1        1.0  0.4428651591297239  0.5071340806316584  0.05509033356793225  1.0000
  P   P2        1.0  0.5996121903881431  0.641781163867563  0.16219223709776998  1.0000
  H   H1        1.0  0.7117399463895708  0.9311385247856379  0.034163800068199635  1.0000
  H   H2        1.0  0.20299643261478195  0.9002876607701182  0.2553555457852781  1.0000
  H   H3        1.0  0.8160501318052411  0.030063548125326633  0.4532116036862135  1.0000
  H   H4        1.0  0.7528284643194638  0.7808306177612394  0.26570338113378966  1.0000
  H   H5        1.0  0.45200053602457047  0.3149195611476898  0.10183743387460709  1.0000
  H   H6        1.0  0.9232952614547685  0.3775816179695539  0.4997000494040549  1.0000
  H   H7        1.0  0.5488282467704266  0.572536126099294  0.44908782932907343  1.0000
  H   H8        1.0  0.11724157561548054  0.6943440232425928  0.2834583025542088  1.0000
  O   O1        1.0  0.3218982896069065  0.016985408030450344  0.3380452701821923  1.0000
  O   O2        1.0  0.5643773645206238  0.30245658804051345  0.6146236875647446  1.0000
  O   O3        1.0  0.14368365592235932  0.6837958658870775  0.7325163595669437  1.0000
  O   O4        1.0  0.20951102253457066  0.9951430298388004  0.07280858000740409  1.0000
  O   O5        1.0  0.09674458717927337  0.5422617115546018  0.642030501156114  1.0000
  O   O6        1.0  0.029343461079406552  0.13226720655802637  0.7485083707142621  1.0000
  O   O7        1.0  0.3313049564603716  0.19783352361992002  0.7208277776371688  1.0000
  O   O8        1.0  0.2848845751141198  0.6392225740710273  0.23226638976484537  1.0000
  O   O9        1.0  0.15432990133558633  0.05889826506609097  0.009721789014292881  1.0000
  O   O10       1.0  0.8899682652481715  0.24952623201534152  0.6649020001059398  1.0000
  F   F1        1.0  0.9116135872900486  0.04255574048147537  0.5164722274057567  1.0000
  F   F2        1.0  0.45557111920788884  0.4580154400318861  0.39893968775868416  1.0000
data_image78
_chemical_formula_structural       Ca2P2H8O10F2
_chemical_formula_sum              "Ca2 P2 H8 O10 F2"
_cell_length_a       8.748547242261026
_cell_length_b       6.5292717768421165
_cell_length_c       5.804229554730758
_cell_angle_alpha    118.85637513684739
_cell_angle_beta     110.64940913561757
_cell_angle_gamma    94.26336680621436

_space_group_name_H-M_alt    "P 1"
_space_group_IT_number       1

loop_
  _space_group_symop_operation_xyz
  'x, y, z'

loop_
  _atom_site_type_symbol
  _atom_site_label
  _atom_site_symmetry_multiplicity
  _atom_site_fract_x
  _atom_site_fract_y
  _atom_site_fract_z
  _atom_site_occupancy
  Ca  Ca1       1.0  0.08495909138582647  0.49954829551279545  0.7941393842920661  1.0000
  Ca  Ca2       1.0  0.14253044733777642  0.05722481198608875  0.7343486018944532  1.0000
  P   P1        1.0  0.259897613665089  0.9355187125038356  0.9114614331629127  1.0000
  P   P2        1.0  0.06381972320377827  0.07396385027095675  0.6840506619773805  1.0000
  H   H1        1.0  0.9813549099490047  0.8072295458987355  0.7365245916880667  1.0000
  H   H2        1.0  0.8512744953472975  0.6034602003637701  0.5276821381412446  1.0000
  H   H3        1.0  0.7120498176664114  0.0002645803615450859  0.15302062220871449  1.0000
  H   H4        1.0  0.2764779179706238  0.03596907597966492  0.006763648591004312  1.0000
  H   H5        1.0  0.8041784064844251  0.17255542427301407  0.2778518497943878  1.0000
  H   H6        1.0  0.6873044950189069  0.01960102874727454  0.9096864890307188  1.0000
  H   H7        1.0  0.31304986821487546  0.6691129017854109  0.8815126484259963  1.0000
  H   H8        1.0  0.769086329266429  0.2906797765754163  0.5358606713707559  1.0000
  O   O1        1.0  0.4059268895071  0.7266695969738066  0.798084964742884  1.0000
  O   O2        1.0  0.38085281139501603  0.801306729852513  0.0907101363845868  1.0000
  O   O3        1.0  0.2538980786994216  0.3952904861616844  0.540532786588301  1.0000
  O   O4        1.0  0.731578838036512  0.9025937016122043  0.6800555647350848  1.0000
  O   O5        1.0  0.6598414988256991  0.12430959870107472  0.22638426336925477  1.0000
  O   O6        1.0  0.23566634207963943  0.08613790548406541  0.40518263448029757  1.0000
  O   O7        1.0  0.5347078564809635  0.5471315107424743  0.47751331457402557  1.0000
  O   O8        1.0  0.13608579873107374  0.32057694531977177  0.6494414960034192  1.0000
  O   O9        1.0  0.6610176689027867  0.8926025829860009  0.41466629347996786  1.0000
  O   O10       1.0  0.8652951600179222  0.25452696898719296  0.6237828952725977  1.0000
  F   F1        1.0  0.04777652025222778  0.13736479109502397  0.6132175687234849  1.0000
  F   F2        1.0  0.72286172863096  0.302587877959013  0.8936019018292427  1.0000
data_image79
_chemical_formula_structural       Ca2P2H8O10F2
_chemical_formula_sum              "Ca2 P2 H8 O10 F2"
_cell_length_a       8.748547242261026
_cell_length_b       6.5292717768421165
_cell_length_c       5.804229554730758
_cell_angle_alpha    118.85637513684739
_cell_angle_beta     110.64940913561757
_cell_angle_gamma    94.26336680621436

_space_group_name_H-M_alt    "P 1"
_space_group_IT_number       1

loop_
  _space_group_symop_operation_xyz
  'x, y, z'

loop_
  _atom_site_type_symbol
  _atom_site_label
  _atom_site_symmetry_multiplicity
  _atom_site_fract_x
  _atom_site_fract_y
  _atom_site_fract_z
  _atom_site_occupancy
  Ca  Ca1       1.0  0.17680554708931595  0.8673961944878101  0.029920781031250954  1.0000
  Ca  Ca2       1.0  0.015685012564063072  0.9115443993359804  0.4785300730727613  1.0000
  P   P1        1.0  0.4977882574312389  0.9751077045220882  0.4758777138777077  1.0000
  P   P2        1.0  0.9608753360807896  0.2476726931054145  0.19594053807668388  1.0000
  H   H1        1.0  0.5898715301882476  0.2830971861258149  0.2237674151547253  1.0000
  H   H2        1.0  0.626500417742136  0.31294942111708224  0.5667243730276823  1.0000
  H   H3        1.0  0.16183113120496273  0.11006623972207308  0.09280399791896343  1.0000
  H   H4        1.0  0.2220302057103254  0.3823667240794748  0.5547139621630777  1.0000
  H   H5        1.0  0.4596015764400363  0.8124158047139645  0.11964103579521179  1.0000
  H   H6        1.0  0.1106328378082253  0.9554477995116031  0.7954323445446789  1.0000
  H   H7        1.0  0.8854724167613313  0.6635200431774138  0.7476254850625992  1.0000
  H   H8        1.0  0.6633690611924976  0.5609538657590747  0.26865766890114173  1.0000
  O   O1        1.0  0.7277014311403036  0.9639762546867132  0.5872844560071826  1.0000
  O   O2        1.0  0.6656053670740221  0.2913908812770387  0.8821157092315843  1.0000
  O   O3        1.0  0.22236125059134793  0.1478740432212362  0.20792803367658053  1.0000
  O   O4        1.0  0.11272424222261179  0.36361395101994276  0.7953123720362782  1.0000
  O   O5        1.0  0.2877021594904363  0.5989072201773524  0.5199902019230649  1.0000
  O   O6        1.0  0.3756722718680976  0.6429850896820426  0.6473266053944826  1.0000
  O   O7        1.0  0.720538085908629  0.3826159206801094  0.8497244993923232  1.0000
  O   O8        1.0  0.12187689190614037  0.42358659498859197  0.23338225693441927  1.0000
  O   O9        1.0  0.8432333751516126  0.9561393347103149  0.5196464619075414  1.0000
  O   O10       1.0  0.38901660001101845  0.6972185100894421  0.21656526962760836  1.0000
  F   F1        1.0  0.03996621537953615  0.5375463030359242  0.5796067579649389  1.0000
  F   F2        1.0  0.719157796818763  0.6559413764625788  0.899939039722085  1.0000
data_image80
_chemical_formula_structural       Ca2P2H8O10F2
_chemical_formula_sum              "Ca2 P2 H8 O10 F2"
_cell_length_a       8.748547242261026
_cell_length_b       6.5292717768421165
_cell_length_c       5.804229554730758
_cell_angle_alpha    118.85637513684739
_cell_angle_beta     110.64940913561757
_cell_angle_gamma    94.26336680621436

_space_group_name_H-M_alt    "P 1"
_space_group_IT_number       1

loop_
  _space_group_symop_operation_xyz
  'x, y, z'

loop_
  _atom_site_type_symbol
  _atom_site_label
  _atom_site_symmetry_multiplicity
  _atom_site_fract_x
  _atom_site_fract_y
  _atom_site_fract_z
  _atom_site_occupancy
  Ca  Ca1       1.0  0.3787769083864987  0.715452047996223  0.10379651049152017  1.0000
  Ca  Ca2       1.0  0.8169361790642142  0.014650414697825909  0.8767968812026083  1.0000
  P   P1        1.0  0.48895414057187736  0.09571789391338825  0.3406019676476717  1.0000
  P   P2        1.0  0.6819940777495503  0.07337549817748368  0.5694746652152389  1.0000
  H   H1        1.0  0.2843835554085672  0.41480008140206337  0.266027525998652  1.0000
  H   H2        1.0  0.6769690681976499  0.08799099875614047  0.7372880829498172  1.0000
  H   H3        1.0  0.8591941623017192  0.15975049138069153  0.6094944700598717  1.0000
  H   H4        1.0  0.2357089826837182  0.3352314722724259  0.3480769064917695  1.0000
  H   H5        1.0  0.030413882806897163  0.9370516464114189  0.24701302498579025  1.0000
  H   H6        1.0  0.47184066369663924  0.0431315197783988  0.5279222996905446  1.0000
  H   H7        1.0  0.3069760948419571  0.11460831758449785  0.3187798485159874  1.0000
  H   H8        1.0  0.631340584717691  0.2482410571537912  0.16358626418514177  1.0000
  O   O1        1.0  0.4908719123341143  0.7525810677325353  0.14912685798481107  1.0000
  O   O2        1.0  0.427066516582272  0.42779322729620617  0.15832292220147792  1.0000
  O   O3        1.0  0.9065444031402876  0.28519727857928956  0.0916243145475164  1.0000
  O   O4        1.0  0.9038298305531498  0.6769379731267691  0.3080163146369159  1.0000
  O   O5        1.0  0.5100728725083172  0.7779619118664414  0.7015663684578612  1.0000
  O   O6        1.0  0.31100058446463663  0.6927363219438121  0.8136711372062564  1.0000
  O   O7        1.0  0.25082052662037313  0.061977188859600574  0.31294899934437126  1.0000
  O   O8        1.0  0.5802414705103729  0.40773783694021404  0.6711037205532193  1.0000
  O   O9        1.0  0.4073708083014935  0.3500857761828229  0.5739313574449625  1.0000
  O   O10       1.0  0.4434329843024898  0.7569578348193318  0.0452978084795177  1.0000
  F   F1        1.0  0.08172971941530704  0.7537394324317575  0.20209224428981543  1.0000
  F   F2        1.0  0.9692442566156387  0.8042131718248129  0.1037472952157259  1.0000
data_image81
_chemical_formula_structural       Ca2P2H8O10F2
_chemical_formula_sum              "Ca2 P2 H8 O10 F2"
_cell_length_a       8.748547242261026
_cell_length_b       6.5292717768421165
_cell_length_c       5.804229554730758
_cell_angle_alpha    118.85637513684739
_cell_angle_beta     110.64940913561757
_cell_angle_gamma    94.26336680621436

_space_group_name_H-M_alt    "P 1"
_space_group_IT_number       1

loop_
  _space_group_symop_operation_xyz
  'x, y, z'

loop_
  _atom_site_type_symbol
  _atom_site_label
  _atom_site_symmetry_multiplicity
  _atom_site_fract_x
  _atom_site_fract_y
  _atom_site_fract_z
  _atom_site_occupancy
  Ca  Ca1       1.0  0.8409428263548762  0.2057517860084772  0.667384039144963  1.0000
  Ca  Ca2       1.0  0.15265209879726171  0.7467343294993043  0.16658939141780138  1.0000
  P   P1        1.0  0.04752879845909774  0.8650130366440862  0.0035244696773588657  1.0000
  P   P2        1.0  0.49921421986073256  0.9877603449858725  0.1432578524108976  1.0000
  H   H1        1.0  0.745326436124742  0.002552766352891922  0.4211649070493877  1.0000
  H   H2        1.0  0.5224704606080195  0.7944651660509408  0.9437387567013502  1.0000
  H   H3        1.0  0.4277067077346146  0.495718932710588  0.8228691164404154  1.0000
  H   H4        1.0  0.8538729368010536  0.21626545628532767  0.18793388933409005  1.0000
  H   H5        1.0  0.5933761214837432  0.49407143518328667  0.888229064643383  1.0000
  H   H6        1.0  0.4593619004590437  0.9481326260429341  0.8509392868727446  1.0000
  H   H7        1.0  0.5781466483604163  0.7750767011930293  0.8672455372288823  1.0000
  H   H8        1.0  0.35694481106474996  0.11111497646197677  0.13325064317905344  1.0000
  O   O1        1.0  0.6972336425678805  0.802823523641564  0.3926362481433898  1.0000
  O   O2        1.0  0.44070043987449026  0.4709976102822111  0.910516344520147  1.0000
  O   O3        1.0  0.05261249220347963  0.9430267599964282  0.32372958432824817  1.0000
  O   O4        1.0  0.5238228015732602  0.27799191512167454  0.8665810134261847  1.0000
  O   O5        1.0  0.691814698278904  0.44009934924542904  0.7894897571532056  1.0000
  O   O6        1.0  0.9814302828453947  0.8790963155915961  0.9158233681228012  1.0000
  O   O7        1.0  0.18308950029313564  0.49649678135756403  0.43765789782628417  1.0000
  O   O8        1.0  0.3620722996420227  0.7227958458242938  0.09608352789655328  1.0000
  O   O9        1.0  0.6245846479723696  0.21723625785671175  0.2181439876476361  1.0000
  O   O10       1.0  0.8165127111569745  0.004945109714753926  0.6099561656592414  1.0000
  F   F1        1.0  0.04045733902603388  0.6460678778530564  0.2344284150749445  1.0000
  F   F2        1.0  0.9723826413974166  0.13691570330411196  0.45062263682484627  1.0000
data_image82
_chemical_formula_structural       Ca2P2H8O10F2
_chemical_formula_sum              "Ca2 P2 H8 O10 F2"
_cell_length_a       8.748547242261026
_cell_length_b       6.5292717768421165
_cell_length_c       5.804229554730758
_cell_angle_alpha    118.85637513684739
_cell_angle_beta     110.64940913561757
_cell_angle_gamma    94.26336680621436

_space_group_name_H-M_alt    "P 1"
_space_group_IT_number       1

loop_
  _space_group_symop_operation_xyz
  'x, y, z'

loop_
  _atom_site_type_symbol
  _atom_site_label
  _atom_site_symmetry_multiplicity
  _atom_site_fract_x
  _atom_site_fract_y
  _atom_site_fract_z
  _atom_site_occupancy
  Ca  Ca1       1.0  0.09988316777162254  0.6466620322316885  0.8569313790649176  1.0000
  Ca  Ca2       1.0  0.3053848659619689  0.2982599912211299  0.6693887289147824  1.0000
  P   P1        1.0  0.1864905555266887  0.33567075175233185  0.10937837278470397  1.0000
  P   P2        1.0  0.3115027118474245  0.5879666307009757  0.16396856284700334  1.0000
  H   H1        1.0  0.7084564745891839  0.15823413152247667  0.5810544337145984  1.0000
  H   H2        1.0  0.7423898100532824  0.6316292390692979  0.772038172930479  1.0000
  H   H3        1.0  0.1956717597786337  0.27950187865644693  0.6791702155023813  1.0000
  H   H4        1.0  0.11544621409848332  0.8447444601915777  0.23671260301489383  1.0000
  H   H5        1.0  0.4203085331246257  0.5685685984790325  0.3185345456004143  1.0000
  H   H6        1.0  0.7045394412707537  0.33367458265274763  0.9855828392319381  1.0000
  H   H7        1.0  0.7209413250675425  0.9275506752892397  0.11638154042884707  1.0000
  H   H8        1.0  0.7469815702643245  0.3379459725692868  0.37877584469970316  1.0000
  O   O1        1.0  0.6484063073294237  0.8967656809836626  0.26424988987855613  1.0000
  O   O2        1.0  0.5262112522177631  0.7879988518252503  0.7249762479041237  1.0000
  O   O3        1.0  0.2826985440697172  0.5646268612326821  0.8268440974206896  1.0000
  O   O4        1.0  0.5390677417599363  0.12211279710754752  0.031736218836158514  1.0000
  O   O5        1.0  0.823704878333956  0.25819275295361876  0.17749521345831454  1.0000
  O   O6        1.0  0.40605361583584454  0.3949943396728486  0.945140007417649  1.0000
  O   O7        1.0  0.15348848921712488  0.8588465574430302  0.2929077160079032  1.0000
  O   O8        1.0  0.21376691584009677  0.3292802420910448  0.04725924180820584  1.0000
  O   O9        1.0  0.9488670011924114  0.6819664986105636  0.3207669521580101  1.0000
  O   O10       1.0  0.09705939615378156  0.2515492725651711  0.12425290327519178  1.0000
  F   F1        1.0  0.5928826360031962  0.1252106732717948  0.48990538343787193  1.0000
  F   F2        1.0  0.4179348857142031  0.9717882387340069  0.39462292194366455  1.0000
data_image83
_chemical_formula_structural       Ca2P2H8O10F2
_chemical_formula_sum              "Ca2 P2 H8 O10 F2"
_cell_length_a       8.748547242261026
_cell_length_b       6.5292717768421165
_cell_length_c       5.804229554730758
_cell_angle_alpha    118.85637513684739
_cell_angle_beta     110.64940913561757
_cell_angle_gamma    94.26336680621436

_space_group_name_H-M_alt    "P 1"
_space_group_IT_number       1

loop_
  _space_group_symop_operation_xyz
  'x, y, z'

loop_
  _atom_site_type_symbol
  _atom_site_label
  _atom_site_symmetry_multiplicity
  _atom_site_fract_x
  _atom_site_fract_y
  _atom_site_fract_z
  _atom_site_occupancy
  Ca  Ca1       1.0  0.3423715715762228  0.9792662132531404  0.12788475584238768  1.0000
  Ca  Ca2       1.0  0.306971681304276  0.6063163131475449  0.5103576993569732  1.0000
  P   P1        1.0  0.10292130568996072  0.5250585998874158  0.2518438820261508  1.0000
  P   P2        1.0  0.7891756244935095  0.4253825561609119  0.6338072831276804  1.0000
  H   H1        1.0  0.35725009394809604  0.16730770654976368  0.781704924069345  1.0000
  H   H2        1.0  0.45050845306832343  0.9544927210081369  0.3018825389444828  1.0000
  H   H3        1.0  0.6638441273244098  0.11969827208667994  0.20749107003211975  1.0000
  H   H4        1.0  0.5482790227979422  0.370426494628191  0.17468608473427594  1.0000
  H   H5        1.0  0.14354330208152533  0.497112687677145  0.6181499883532524  1.0000
  H   H6        1.0  0.2557109644403681  0.8796671559102833  0.36251132376492023  1.0000
  H   H7        1.0  0.1607234524562955  0.7249953070131596  0.37259779684245586  1.0000
  H   H8        1.0  0.2545053994981572  0.7513210391625762  0.4347405481385067  1.0000
  O   O1        1.0  0.9560941406525671  0.8782778341555968  0.9421241949312389  1.0000
  O   O2        1.0  0.6404689251648961  0.6599294440238737  0.8444148850685451  1.0000
  O   O3        1.0  0.7213254317175597  0.4985573465382913  0.3714494995656423  1.0000
  O   O4        1.0  0.3069424562709173  0.8997146221809089  0.578833588398993  1.0000
  O   O5        1.0  0.4382794317789376  0.6262721200473607  0.7420454975217581  1.0000
  O   O6        1.0  0.2144372383481823  0.997673602309078  0.5204518036916852  1.0000
  O   O7        1.0  0.8549088743748143  0.1779015673091635  0.04331644414924085  1.0000
  O   O8        1.0  0.4031635911669582  0.10990070435218513  0.42586298868991435  1.0000
  O   O9        1.0  0.6471289287874242  0.3397182277403772  0.6183981214417145  1.0000
  O   O10       1.0  0.7748744086566148  0.10852104227524251  0.1528948845807463  1.0000
  F   F1        1.0  0.41925309877842665  0.5391885833341803  0.7205141496378928  1.0000
  F   F2        1.0  0.7036711485125124  0.3869280507788062  0.5001619458198547  1.0000
data_image84
_chemical_formula_structural       Ca2P2H8O10F2
_chemical_formula_sum              "Ca2 P2 H8 O10 F2"
_cell_length_a       8.748547242261026
_cell_length_b       6.5292717768421165
_cell_length_c       5.804229554730758
_cell_angle_alpha    118.85637513684739
_cell_angle_beta     110.64940913561757
_cell_angle_gamma    94.26336680621436

_space_group_name_H-M_alt    "P 1"
_space_group_IT_number       1

loop_
  _space_group_symop_operation_xyz
  'x, y, z'

loop_
  _atom_site_type_symbol
  _atom_site_label
  _atom_site_symmetry_multiplicity
  _atom_site_fract_x
  _atom_site_fract_y
  _atom_site_fract_z
  _atom_site_occupancy
  Ca  Ca1       1.0  0.0914933035383001  0.637919107452035  0.16324402671307325  1.0000
  Ca  Ca2       1.0  0.6674338094890118  0.759060699492693  0.6798322750255466  1.0000
  P   P1        1.0  0.5099879703484476  0.542057138402015  0.45426453300751746  1.0000
  P   P2        1.0  0.7756539564579725  0.8046426146756858  0.7915667393244803  1.0000
  H   H1        1.0  0.5871068483684212  0.5821176562458277  0.903016734868288  1.0000
  H   H2        1.0  0.08273241686401889  0.6964792683720589  0.45690473774448037  1.0000
  H   H3        1.0  0.4212191142141819  0.08265810459852219  0.19003566727042198  1.0000
  H   H4        1.0  0.6873173783533275  0.6490223305299878  0.9915475458838046  1.0000
  H   H5        1.0  0.09662109706550837  0.23930160328745842  0.6311477571725845  1.0000
  H   H6        1.0  0.15257513633696362  0.24899777775863186  0.418386893812567  1.0000
  H   H7        1.0  0.301803067792207  0.806794429270667  0.050330301746726036  1.0000
  H   H8        1.0  0.43509579822421074  0.254836970474571  0.6278000231832266  1.0000
  O   O1        1.0  0.0770520237274468  0.30463368666823953  0.9764813994988799  1.0000
  O   O2        1.0  0.8312917043658672  0.5229702012729831  0.37662080937298015  1.0000
  O   O3        1.0  0.9696785292617278  0.08490175250335597  0.572103352042177  1.0000
  O   O4        1.0  0.052547261177096516  0.6806862838566303  0.0426108306273818  1.0000
  O   O5        1.0  0.3284888966009021  0.06669226475059986  0.14867860288359225  1.0000
  O   O6        1.0  0.03832240548217669  0.7782855193363503  0.3033064703922719  1.0000
  O   O7        1.0  0.8997203732142225  0.012206504179630429  0.2942495353054255  1.0000
  O   O8        1.0  0.5999435237026773  0.25933469901792705  0.4846328713465482  1.0000
  O   O9        1.0  0.008390158242036705  0.8280949754407629  0.3362307053466793  1.0000
  O   O10       1.0  0.35945716488640755  0.10628936090506613  0.9965347107499838  1.0000
  F   F1        1.0  0.3166555892676115  0.30302038932131836  0.9664856705348939  1.0000
  F   F2        1.0  0.6486213454045355  0.3002216713503003  0.48340811766684055  1.0000
data_image85
_chemical_formula_structural       Ca2P2H8O10F2
_chemical_formula_sum              "Ca2 P2 H8 O10 F2"
_cell_length_a       8.748547242261026
_cell_length_b       6.5292717768421165
_cell_length_c       5.804229554730758
_cell_angle_alpha    118.85637513684739
_cell_angle_beta     110.64940913561757
_cell_angle_gamma    94.26336680621436

_space_group_name_H-M_alt    "P 1"
_space_group_IT_number       1

loop_
  _space_group_symop_operation_xyz
  'x, y, z'

loop_
  _atom_site_type_symbol
  _atom_site_label
  _atom_site_symmetry_multiplicity
  _atom_site_fract_x
  _atom_site_fract_y
  _atom_site_fract_z
  _atom_site_occupancy
  Ca  Ca1       1.0  0.07817445625551045  0.8488466329872608  0.5691031040623784  1.0000
  Ca  Ca2       1.0  0.16857333853840828  0.49048528261482716  0.04764706315472722  1.0000
  P   P1        1.0  0.3402440568897873  0.6421003986615688  0.032538645435124636  1.0000
  P   P2        1.0  0.9771340563893318  0.6099662624765188  0.7905739254783839  1.0000
  H   H1        1.0  0.05906271538697183  0.7819163603708148  0.07542854431085289  1.0000
  H   H2        1.0  0.672358636802528  0.7921336721628904  0.7591551598161459  1.0000
  H   H3        1.0  0.9164011295652017  0.049742662347853184  0.7551804929971695  1.0000
  H   H4        1.0  0.77276547299698  0.6870316090062261  0.9815963099244982  1.0000
  H   H5        1.0  0.6875492101535201  0.4146667718887329  0.3926042914390564  1.0000
  H   H6        1.0  0.06051549385301769  0.32052977685816586  0.05718421842902899  1.0000
  H   H7        1.0  0.9762093950994313  0.9582248622027691  0.7795995664782822  1.0000
  H   H8        1.0  0.430088133784011  0.6093278652988374  0.9543086857302114  1.0000
  O   O1        1.0  0.5125237794127315  0.6302913188701496  0.004928046138957143  1.0000
  O   O2        1.0  0.1356878674851032  0.20155100984266028  0.8810697834414896  1.0000
  O   O3        1.0  0.5241572913746495  0.42277291195932776  0.624655886358596  1.0000
  O   O4        1.0  0.09691425329947378  0.3520878981798887  0.8706415756605566  1.0000
  O   O5        1.0  0.38034127559512854  0.8402333748526871  0.8191602765582502  1.0000
  O   O6        1.0  0.8306625959812663  0.5595501485513523  0.591551057761535  1.0000
  O   O7        1.0  0.2707436712225899  0.9610061808489263  0.32493394147604704  1.0000
  O   O8        1.0  0.8626127645839006  0.25417263712733984  0.5879459301941097  1.0000
  O   O9        1.0  0.10589628218076541  0.9816015899414197  0.7801173426560126  1.0000
  O   O10       1.0  0.8825115072831977  0.40690664970315993  0.2729025133885443  1.0000
  F   F1        1.0  0.9029428865760565  0.5614793994864158  0.5650346260517836  1.0000
  F   F2        1.0  0.7205623970367014  0.45432075671851635  0.0028607863932847977  1.0000
data_image86
_chemical_formula_structural       Ca2P2H8O10F2
_chemical_formula_sum              "Ca2 P2 H8 O10 F2"
_cell_length_a       8.748547242261026
_cell_length_b       6.5292717768421165
_cell_length_c       5.804229554730758
_cell_angle_alpha    118.85637513684739
_cell_angle_beta     110.64940913561757
_cell_angle_gamma    94.26336680621436

_space_group_name_H-M_alt    "P 1"
_space_group_IT_number       1

loop_
  _space_group_symop_operation_xyz
  'x, y, z'

loop_
  _atom_site_type_symbol
  _atom_site_label
  _atom_site_symmetry_multiplicity
  _atom_site_fract_x
  _atom_site_fract_y
  _atom_site_fract_z
  _atom_site_occupancy
  Ca  Ca1       1.0  0.08144626882858574  0.7479124814271927  0.16596227791160345  1.0000
  Ca  Ca2       1.0  0.36083233589306474  0.6739064380526543  0.6066891932860017  1.0000
  P   P1        1.0  0.8710129407700151  0.5699430741369724  0.844938576919958  1.0000
  P   P2        1.0  0.11736337374895811  0.18626602762378752  0.010437849443405867  1.0000
  H   H1        1.0  0.8102310104295611  0.299809692427516  0.5558947043027729  1.0000
  H   H2        1.0  0.9648165624239482  0.95993179269135  0.4205141174606979  1.0000
  H   H3        1.0  0.6265496708219871  0.8246664358302951  0.19946512579917908  1.0000
  H   H4        1.0  0.6814285186119378  0.25534758204594254  0.1209492952330038  1.0000
  H   H5        1.0  0.6248245164752007  0.9687745645642281  0.5803108140826225  1.0000
  H   H6        1.0  0.869884826708585  0.16298662655754015  0.2710000844672322  1.0000
  H   H7        1.0  0.3388552633114159  0.8503845783998258  0.23833653703331947  1.0000
  H   H8        1.0  0.933574817085173  0.17418310744687915  0.6995021771872416  1.0000
  O   O1        1.0  0.6502314833924174  0.6628094424959272  0.11291889473795891  1.0000
  O   O2        1.0  0.61418902585865  0.8000853328849189  0.39130639730137773  1.0000
  O   O3        1.0  0.35272616107158683  0.14047447513439693  0.7519071154565609  1.0000
  O   O4        1.0  0.7233671977483027  0.7988774748519063  0.7950225388631225  1.0000
  O   O5        1.0  0.27640202874317765  0.39736797427758574  0.7792383469641209  1.0000
  O   O6        1.0  0.6838212232105434  0.8623842584202066  0.5333562139421701  1.0000
  O   O7        1.0  0.5228139229584485  0.39831832505296916  0.12030042998958379  1.0000
  O   O8        1.0  0.5999893931439146  0.22772700036875904  0.8535388289019465  1.0000
  O   O9        1.0  0.6899610769605715  0.6990618933923542  0.9692946877039503  1.0000
  O   O10       1.0  0.5949780706723686  0.40899132331833243  0.00831572525203228  1.0000
  F   F1        1.0  0.29733639024198055  0.8135430970505695  0.5976950705517083  1.0000
  F   F2        1.0  0.4430407667532563  0.35844792053103447  0.3203779738396406  1.0000
data_image87
_chemical_formula_structural       Ca2P2H8O10F2
_chemical_formula_sum              "Ca2 P2 H8 O10 F2"
_cell_length_a       8.748547242261026
_cell_length_b       6.5292717768421165
_cell_length_c       5.804229554730758
_cell_angle_alpha    118.85637513684739
_cell_angle_beta     110.64940913561757
_cell_angle_gamma    94.26336680621436

_space_group_name_H-M_alt    "P 1"
_space_group_IT_number       1

loop_
  _space_group_symop_operation_xyz
  'x, y, z'

loop_
  _atom_site_type_symbol
  _atom_site_label
  _atom_site_symmetry_multiplicity
  _atom_site_fract_x
  _atom_site_fract_y
  _atom_site_fract_z
  _atom_site_occupancy
  Ca  Ca1       1.0  0.18380029825493693  0.8093061055988073  0.9234700603410602  1.0000
  Ca  Ca2       1.0  0.07883598702028394  0.5709724277257919  0.5185243175365031  1.0000
  P   P1        1.0  0.5829340008785948  0.6414148779585958  0.7608787463977933  1.0000
  P   P2        1.0  0.3313878350891173  0.12200533994473517  0.08962649619206786  1.0000
  H   H1        1.0  0.781645510578528  0.5905595812946558  0.30687672831118107  1.0000
  H   H2        1.0  0.8498260166379623  0.9000691235996783  0.810955151449889  1.0000
  H   H3        1.0  0.6909244457492605  0.25449103489518166  0.3117757346481085  1.0000
  H   H4        1.0  0.12379611935466528  0.2579142898321152  0.5588077100692317  1.0000
  H   H5        1.0  0.9057767661288381  0.419449120759964  0.5500613451004028  1.0000
  H   H6        1.0  0.14853797538671643  0.7659787424490787  0.050314138643443584  1.0000
  H   H7        1.0  0.7490797422360629  0.9190535186207853  0.8725782283581793  1.0000
  H   H8        1.0  0.44832751114154235  0.8148381756618619  0.702075622160919  1.0000
  O   O1        1.0  0.047197848092764616  0.6256267252610996  0.33845638995990157  1.0000
  O   O2        1.0  0.17128973852959462  0.44616175815463066  0.830896480823867  1.0000
  O   O3        1.0  0.24657821864821017  0.3665940438513644  0.7032699396004318  1.0000
  O   O4        1.0  0.8877692513697184  0.20800874382257462  0.4930388843640685  1.0000
  O   O5        1.0  0.8793157748878002  0.07566983392462134  0.1514511771965772  1.0000
  O   O6        1.0  0.009524132357910275  0.5651671815430745  0.3428663124796003  1.0000
  O   O7        1.0  0.20277429628185928  0.7452617036178708  0.9229749778751284  1.0000
  O   O8        1.0  0.7202631446998566  0.5767478176858276  0.9339927732944489  1.0000
  O   O9        1.0  0.08380002860212699  0.7886262208921835  0.40926101518562064  1.0000
  O   O10       1.0  0.47988300828728825  0.9195353100076318  0.23345546377822757  1.0000
  F   F1        1.0  0.12052692100405693  0.21325764369248645  0.31826630141586065  1.0000
  F   F2        1.0  0.9479352477937937  0.3789963237941265  0.46384286880493164  1.0000
data_image88
_chemical_formula_structural       Ca2P2H8O10F2
_chemical_formula_sum              "Ca2 P2 H8 O10 F2"
_cell_length_a       8.748547242261026
_cell_length_b       6.5292717768421165
_cell_length_c       5.804229554730758
_cell_angle_alpha    118.85637513684739
_cell_angle_beta     110.64940913561757
_cell_angle_gamma    94.26336680621436

_space_group_name_H-M_alt    "P 1"
_space_group_IT_number       1

loop_
  _space_group_symop_operation_xyz
  'x, y, z'

loop_
  _atom_site_type_symbol
  _atom_site_label
  _atom_site_symmetry_multiplicity
  _atom_site_fract_x
  _atom_site_fract_y
  _atom_site_fract_z
  _atom_site_occupancy
  Ca  Ca1       1.0  0.19221096695400774  0.4630886223167181  0.19347894750535488  1.0000
  Ca  Ca2       1.0  0.14471233868971467  0.5303890630602837  0.06724861962720752  1.0000
  P   P1        1.0  0.5502212087158114  0.16804355394560844  0.30808292888104916  1.0000
  P   P2        1.0  0.9703639000654221  0.5928845282178372  0.6078493543900549  1.0000
  H   H1        1.0  0.8704509065719321  0.4502723077312112  0.3411346178036183  1.0000
  H   H2        1.0  0.6511665175785311  0.8714782502502203  0.8106910856440663  1.0000
  H   H3        1.0  0.5059447503881529  0.7309664972126484  0.6533021479845047  1.0000
  H   H4        1.0  0.13047773437574506  0.18706706538796425  0.914212628849782  1.0000
  H   H5        1.0  0.6740678288042545  0.7187601961195469  0.799223467707634  1.0000
  H   H6        1.0  0.13910240889526904  0.23448370445112232  0.7986357319168746  1.0000
  H   H7        1.0  0.5471689141122624  0.6999183050356805  0.991121550090611  1.0000
  H   H8        1.0  0.31529712810879573  0.12677783239632845  0.2825064780190587  1.0000
  O   O1        1.0  0.9338712042663246  0.3183371458435431  0.12264650850556791  1.0000
  O   O2        1.0  0.5716490080230869  0.2630923914257437  0.5910597253241576  1.0000
  O   O3        1.0  0.9420839096601412  0.4544031181721948  0.2188925285518053  1.0000
  O   O4        1.0  0.4108298994397046  0.37820039223879576  0.15348035702481866  1.0000
  O   O5        1.0  0.7147339074872434  0.07004857528954744  0.49478784878738225  1.0000
  O   O6        1.0  0.9294426676933654  0.1325467035640031  0.7528093901928514  1.0000
  O   O7        1.0  0.34180929337162524  0.7069071381120011  0.6263960412470624  1.0000
  O   O8        1.0  0.6380622810684144  0.7060300975572318  0.4065989339724183  1.0000
  O   O9        1.0  0.09362555418920238  0.7910902355797589  0.9470683354884386  1.0000
  O   O10       1.0  0.8986896335554775  0.61551154544577  0.9036123561672866  1.0000
  F   F1        1.0  0.4738545184955001  0.35590194781980244  0.4535953989252448  1.0000
  F   F2        1.0  0.5360860349610448  0.9999834802001715  0.026996146887540817  1.0000
data_image89
_chemical_formula_structural       Ca2P2H8O10F2
_chemical_formula_sum              "Ca2 P2 H8 O10 F2"
_cell_length_a       8.748547242261026
_cell_length_b       6.5292717768421165
_cell_length_c       5.804229554730758
_cell_angle_alpha    118.85637513684739
_cell_angle_beta     110.64940913561757
_cell_angle_gamma    94.26336680621436

_space_group_name_H-M_alt    "P 1"
_space_group_IT_number       1

loop_
  _space_group_symop_operation_xyz
  'x, y, z'

loop_
  _atom_site_type_symbol
  _atom_site_label
  _atom_site_symmetry_multiplicity
  _atom_site_fract_x
  _atom_site_fract_y
  _atom_site_fract_z
  _atom_site_occupancy
  Ca  Ca1       1.0  0.39179238863289356  0.03729532100260258  0.3138972958549857  1.0000
  Ca  Ca2       1.0  0.5338409650139511  0.06772821210324764  0.8965542390942574  1.0000
  P   P1        1.0  0.04530038847588003  0.9657007035566494  0.5849670879542828  1.0000
  P   P2        1.0  0.2617373997345567  0.25653537176549435  0.11537827225401998  1.0000
  H   H1        1.0  0.37955282407347113  0.28608878795057535  0.324364778585732  1.0000
  H   H2        1.0  0.0003944524796679616  0.3359145182184875  0.8320631897076964  1.0000
  H   H3        1.0  0.03131196345202625  0.8908084165304899  0.3792717680335045  1.0000
  H   H4        1.0  0.41508182883262634  0.8534445599652827  0.12188585137482733  1.0000
  H   H5        1.0  0.9163156654685736  0.0007928609848022461  0.5675861164927483  1.0000
  H   H6        1.0  0.705271102138795  0.7987859817949357  0.5881140120327473  1.0000
  H   H7        1.0  0.8388284239917994  0.7358056933153421  0.7349296091124415  1.0000
  H   H8        1.0  0.10776271991198882  0.11424968112260103  0.046038965694606304  1.0000
  O   O1        1.0  0.6076599340885878  0.14179261913523078  0.5366168164182454  1.0000
  O   O2        1.0  0.33552685831091367  0.04367752809775993  0.2318223271286115  1.0000
  O   O3        1.0  0.6337344628263963  0.1514387849601917  0.20936575447558425  1.0000
  O   O4        1.0  0.35793069699502666  0.9375988538376987  0.5041652885265648  1.0000
  O   O5        1.0  0.6119044185616076  0.10287765506654978  0.9828571784310043  1.0000
  O   O6        1.0  0.012928195734275505  0.11709730909205973  0.5632843500934541  1.0000
  O   O7        1.0  0.31407991144806147  0.655755817424506  0.14916363125666976  1.0000
  O   O8        1.0  0.8972335769794881  0.09260408882983029  0.37040381506085396  1.0000
  O   O9        1.0  0.39009723742492497  0.4007763550616801  0.43351345730479807  1.0000
  O   O10       1.0  0.8593713604786899  0.945041848346591  0.8252132758498192  1.0000
  F   F1        1.0  0.2856348752975464  0.021947621113213245  0.2975129185942933  1.0000
  F   F2        1.0  0.018323008436709642  0.023613170720636845  0.02607491984963417  1.0000
data_image90
_chemical_formula_structural       Ca2P2H8O10F2
_chemical_formula_sum              "Ca2 P2 H8 O10 F2"
_cell_length_a       8.748547242261026
_cell_length_b       6.5292717768421165
_cell_length_c       5.804229554730758
_cell_angle_alpha    118.85637513684739
_cell_angle_beta     110.64940913561757
_cell_angle_gamma    94.26336680621436

_space_group_name_H-M_alt    "P 1"
_space_group_IT_number       1

loop_
  _space_group_symop_operation_xyz
  'x, y, z'

loop_
  _atom_site_type_symbol
  _atom_site_label
  _atom_site_symmetry_multiplicity
  _atom_site_fract_x
  _atom_site_fract_y
  _atom_site_fract_z
  _atom_site_occupancy
  Ca  Ca1       1.0  0.13087738712783903  0.28235626965761185  0.8005465539172292  1.0000
  Ca  Ca2       1.0  0.8267152039334178  0.4914210494607687  0.9475942947901785  1.0000
  P   P1        1.0  0.8619205676950514  0.26429411629214883  0.5786097710952163  1.0000
  P   P2        1.0  0.993345380295068  0.4967467428650707  0.981784132309258  1.0000
  H   H1        1.0  0.8763426531222649  0.43907652236521244  0.7034919338184409  1.0000
  H   H2        1.0  0.12941118178423494  0.5224669477902353  0.20531974826008081  1.0000
  H   H3        1.0  0.5182699968572706  0.5078198639675975  0.2958371117711067  1.0000
  H   H4        1.0  0.8244105810299516  0.15945551777258515  0.2896752405213192  1.0000
  H   H5        1.0  0.35892732441425323  0.09098765626549721  0.143138125538826  1.0000
  H   H6        1.0  0.38243826129473746  0.6240780104417354  0.7139263907447457  1.0000
  H   H7        1.0  0.7309993924573064  0.29563985485583544  0.5577972340397537  1.0000
  H   H8        1.0  0.22758216183865443  0.09723213454708457  0.8420741541776806  1.0000
  O   O1        1.0  0.11923318565823138  0.6274470228236169  0.49290229962207377  1.0000
  O   O2        1.0  0.9233588114730082  0.8679926472250372  0.5476810067193583  1.0000
  O   O3        1.0  0.3352374984388007  0.09440978494239971  0.3296112502721371  1.0000
  O   O4        1.0  0.40199870530341286  0.001970904879271984  0.8867230033501983  1.0000
  O   O5        1.0  0.5997984688729048  0.19475073413923383  0.7604005874600261  1.0000
  O   O6        1.0  0.777958591846982  0.9848353004781529  0.7883983328938484  1.0000
  O   O7        1.0  0.1099086063914001  0.6633005351759493  0.8722385308938101  1.0000
  O   O8        1.0  0.8295999943511561  0.38560030120424926  0.6167693892493844  1.0000
  O   O9        1.0  0.3757503782690037  0.8472363147884607  0.7106420811178396  1.0000
  O   O10       1.0  0.2863952695915941  0.45765589619986713  0.556748085655272  1.0000
  F   F1        1.0  0.851265549659729  0.13152952218661085  0.7280283025465906  1.0000
  F   F2        1.0  0.30852785240858793  0.27556276228278875  0.588211115449667  1.0000
data_image91
_chemical_formula_structural       Ca2P2H8O10F2
_chemical_formula_sum              "Ca2 P2 H8 O10 F2"
_cell_length_a       8.748547242261026
_cell_length_b       6.5292717768421165
_cell_length_c       5.804229554730758
_cell_angle_alpha    118.85637513684739
_cell_angle_beta     110.64940913561757
_cell_angle_gamma    94.26336680621436

_space_group_name_H-M_alt    "P 1"
_space_group_IT_number       1

loop_
  _space_group_symop_operation_xyz
  'x, y, z'

loop_
  _atom_site_type_symbol
  _atom_site_label
  _atom_site_symmetry_multiplicity
  _atom_site_fract_x
  _atom_site_fract_y
  _atom_site_fract_z
  _atom_site_occupancy
  Ca  Ca1       1.0  0.5867565079824999  0.7885481100529432  0.3712006779387593  1.0000
  Ca  Ca2       1.0  0.8844153829850256  0.9528407324105501  0.7386103463359177  1.0000
  P   P1        1.0  0.8704816056415439  0.34302610272425227  0.8044431519228965  1.0000
  P   P2        1.0  0.4197796396911144  0.4595474866218865  0.048325297655537724  1.0000
  H   H1        1.0  0.988040707365144  0.42876538913697004  0.8698342387797311  1.0000
  H   H2        1.0  0.2641016810084693  0.044334177393466234  0.5937103061005473  1.0000
  H   H3        1.0  0.010033804806880653  0.9429711829870939  0.43301975168287754  1.0000
  H   H4        1.0  0.9801909835077822  0.03944210195913911  0.5559625480091199  1.0000
  H   H5        1.0  0.16633247025310993  0.8507113307714462  0.33167900145053864  1.0000
  H   H6        1.0  0.026198387262411416  0.4390918767894618  0.35508057242259383  1.0000
  H   H7        1.0  0.3464699836913496  0.7807757506379858  0.8940604766830802  1.0000
  H   H8        1.0  0.8130099930567667  0.10389176988974214  0.24607881158590317  1.0000
  O   O1        1.0  0.24390764627605677  0.12702695524785668  0.5862185563892126  1.0000
  O   O2        1.0  0.18290708705899306  0.26104886399116367  0.19318299554288387  1.0000
  O   O3        1.0  0.4568815248203464  0.5630272016278468  0.33533941104542464  1.0000
  O   O4        1.0  0.14138514081423637  0.9166872194036841  0.7561969431117177  1.0000
  O   O5        1.0  0.46854992490261793  0.5174747370183468  0.14532298990525305  1.0000
  O   O6        1.0  0.47263377244235016  0.6018083756789565  0.9875565057154745  1.0000
  O   O7        1.0  0.5183716148603708  0.37564892903901637  0.40013739990536124  1.0000
  O   O8        1.0  0.34621079498901963  0.8506899806670845  0.8236029120162129  1.0000
  O   O9        1.0  0.36951733502792194  0.4882628717459738  0.8551404810132226  1.0000
  O   O10       1.0  0.6721718316839542  0.7586602352093905  0.645566578488797  1.0000
  F   F1        1.0  0.4414500081911683  0.9084542948403396  0.4298545422498137  1.0000
  F   F2        1.0  0.43592965323477983  0.733262063935399  0.9089009668678045  1.0000
data_image92
_chemical_formula_structural       Ca2P2H8O10F2
_chemical_formula_sum              "Ca2 P2 H8 O10 F2"
_cell_length_a       8.748547242261026
_cell_length_b       6.5292717768421165
_cell_length_c       5.804229554730758
_cell_angle_alpha    118.85637513684739
_cell_angle_beta     110.64940913561757
_cell_angle_gamma    94.26336680621436

_space_group_name_H-M_alt    "P 1"
_space_group_IT_number       1

loop_
  _space_group_symop_operation_xyz
  'x, y, z'

loop_
  _atom_site_type_symbol
  _atom_site_label
  _atom_site_symmetry_multiplicity
  _atom_site_fract_x
  _atom_site_fract_y
  _atom_site_fract_z
  _atom_site_occupancy
  Ca  Ca1       1.0  0.35865812143310905  0.4602230377495289  0.9236433198675513  1.0000
  Ca  Ca2       1.0  0.9621635924850125  0.2860140763223171  0.8264435036107898  1.0000
  P   P1        1.0  0.8896980292629451  0.15842715729377232  0.7572958040836966  1.0000
  P   P2        1.0  0.6697767875157297  0.7148655820637941  0.634989254642278  1.0000
  H   H1        1.0  0.024634246656205505  0.9810733078047633  0.28242825670167804  1.0000
  H   H2        1.0  0.44469477370148525  0.36860008584335446  0.6816119342111051  1.0000
  H   H3        1.0  0.6049595523363678  0.7809083620086312  0.5050993338227272  1.0000
  H   H4        1.0  0.45358770713210106  0.1587199093773961  0.5875217308057472  1.0000
  H   H5        1.0  0.46038892585784197  0.24086971580982208  0.1566862240433693  1.0000
  H   H6        1.0  0.8931757442769594  0.5979852617601864  0.4982249198947102  1.0000
  H   H7        1.0  0.21586064191069454  0.05094742472283542  0.24582088040187955  1.0000
  H   H8        1.0  0.742582468315959  0.8257697974331677  0.13043920253403485  1.0000
  O   O1        1.0  0.24342473992146552  0.7627599387778901  0.7598360881675035  1.0000
  O   O2        1.0  0.5600819459941704  0.5945739255985245  0.6007365104160272  1.0000
  O   O3        1.0  0.7327179045096273  0.39989418373443186  0.5929638935776893  1.0000
  O   O4        1.0  0.3366081096974085  0.9265437470749021  0.8125960258767009  1.0000
  O   O5        1.0  0.11710978532209992  0.19340406963601708  0.7735864268615842  1.0000
  O   O6        1.0  0.2997714835219085  0.022746840957552195  0.02149452595040202  1.0000
  O   O7        1.0  0.32105951779522  0.49557508644647896  0.6685866590123624  1.0000
  O   O8        1.0  0.413887677132152  0.8647902002558112  0.3117613960057497  1.0000
  O   O9        1.0  0.9891690866497811  0.9562590173445642  0.539688719480182  1.0000
  O   O10       1.0  0.2584143170679454  0.6781545677222311  0.27143930131569505  1.0000
  F   F1        1.0  0.8530797837302089  0.2836715596495196  0.8311069314368069  1.0000
  F   F2        1.0  0.1094083646312356  0.2975520249456167  0.29124370962381363  1.0000
data_image93
_chemical_formula_structural       Ca2P2H8O10F2
_chemical_formula_sum              "Ca2 P2 H8 O10 F2"
_cell_length_a       8.748547242261026
_cell_length_b       6.5292717768421165
_cell_length_c       5.804229554730758
_cell_angle_alpha    118.85637513684739
_cell_angle_beta     110.64940913561757
_cell_angle_gamma    94.26336680621436

_space_group_name_H-M_alt    "P 1"
_space_group_IT_number       1

loop_
  _space_group_symop_operation_xyz
  'x, y, z'

loop_
  _atom_site_type_symbol
  _atom_site_label
  _atom_site_symmetry_multiplicity
  _atom_site_fract_x
  _atom_site_fract_y
  _atom_site_fract_z
  _atom_site_occupancy
  Ca  Ca1       1.0  0.7524796756915748  0.5955020897090435  0.45994456857442856  1.0000
  Ca  Ca2       1.0  0.6456682096468285  0.34837235137820244  0.7847499446943402  1.0000
  P   P1        1.0  0.901757953921333  0.926996894471813  0.6355054234736599  1.0000
  P   P2        1.0  0.09743751399219036  0.03385558491572738  0.175797006348148  1.0000
  H   H1        1.0  0.45550998466205783  0.31023580953478813  0.42546303384006023  1.0000
  H   H2        1.0  0.6046326457872055  0.5518085244111717  0.2749548954889178  1.0000
  H   H3        1.0  0.9326573265898332  0.4535609530285001  0.9191722087562084  1.0000
  H   H4        1.0  0.571992842014879  0.5935289864428341  0.9937900048680604  1.0000
  H   H5        1.0  0.43838059064000845  0.9864900857210159  0.10753325372934341  1.0000
  H   H6        1.0  0.6740450515644625  0.3210625993087888  0.5726870780345052  1.0000
  H   H7        1.0  0.08998716878704727  0.017532613594084978  0.7438684809021652  1.0000
  H   H8        1.0  0.49766407517017797  0.004979402758181095  0.8682839937973768  1.0000
  O   O1        1.0  0.09420763072557747  0.30797264171997085  0.29295676527544856  1.0000
  O   O2        1.0  0.7960658632800914  0.24713114637415856  0.8417889369302429  1.0000
  O   O3        1.0  0.44243302023096476  0.7786960898665711  0.4336615002466715  1.0000
  O   O4        1.0  0.7896438095849589  0.5299225831404328  0.5133888111449778  1.0000
  O   O5        1.0  0.8130837697535753  0.012247126549482346  0.22185235284268856  1.0000
  O   O6        1.0  0.596701566100819  0.37450646073557436  0.11429568589664996  1.0000
  O   O7        1.0  0.5311151363421232  0.6440264906268567  0.4090089607052505  1.0000
  O   O8        1.0  0.06269058608449996  0.5036094712559134  0.14875203417614102  1.0000
  O   O9        1.0  0.8147926311357878  0.5390438640024513  0.29086202062899247  1.0000
  O   O10       1.0  0.24281169133610092  0.3030775305815041  0.5675327875651419  1.0000
  F   F1        1.0  0.2276672376319766  0.036461641429923475  0.9657959872856736  1.0000
  F   F2        1.0  0.8609745791181922  0.9522915296256542  0.03348708711564541  1.0000
data_image94
_chemical_formula_structural       Ca2P2H8O10F2
_chemical_formula_sum              "Ca2 P2 H8 O10 F2"
_cell_length_a       8.748547242261026
_cell_length_b       6.5292717768421165
_cell_length_c       5.804229554730758
_cell_angle_alpha    118.85637513684739
_cell_angle_beta     110.64940913561757
_cell_angle_gamma    94.26336680621436

_space_group_name_H-M_alt    "P 1"
_space_group_IT_number       1

loop_
  _space_group_symop_operation_xyz
  'x, y, z'

loop_
  _atom_site_type_symbol
  _atom_site_label
  _atom_site_symmetry_multiplicity
  _atom_site_fract_x
  _atom_site_fract_y
  _atom_site_fract_z
  _atom_site_occupancy
  Ca  Ca1       1.0  0.712962384801358  0.30389592982828617  0.8779544653370976  1.0000
  Ca  Ca2       1.0  0.1893839214462787  0.6765651851892471  0.6134505718946457  1.0000
  P   P1        1.0  0.6753111789003015  0.5377313487115316  0.6601371610304341  1.0000
  P   P2        1.0  0.4520775778219104  0.5726384064182639  0.5340049755759537  1.0000
  H   H1        1.0  0.5489061399130151  0.06545333936810493  0.8142991994391195  1.0000
  H   H2        1.0  0.16148525854805484  0.6375847584567964  0.5585112436674535  1.0000
  H   H3        1.0  0.3520876340990071  0.8094664784148335  0.8515832480043173  1.0000
  H   H4        1.0  0.6162383444607258  0.049994620494544506  0.009939476964063942  1.0000
  H   H5        1.0  0.743946653790772  0.756374154239893  0.32075122743844986  1.0000
  H   H6        1.0  0.936720285564661  0.46020026836777106  0.4289681955706328  1.0000
  H   H7        1.0  0.2792206183075905  0.1579691816587001  0.9107672260142863  1.0000
  H   H8        1.0  0.7070129268686287  0.9134684056043625  0.8836927919182926  1.0000
  O   O1        1.0  0.4326495877467096  0.3814494631951675  0.136438598157838  1.0000
  O   O2        1.0  0.2738408006262034  0.6894136123592034  0.37976328923832625  1.0000
  O   O3        1.0  0.20625972223933786  0.8177359611145221  0.9821396349288989  1.0000
  O   O4        1.0  0.7882791581905622  0.5550733259879053  0.8813388701528311  1.0000
  O   O5        1.0  0.7054253155365586  0.9811686747707427  0.31026753736659884  1.0000
  O   O6        1.0  0.1741059681517072  0.2949307083617896  0.6041511134244502  1.0000
  O   O7        1.0  0.9227844419656321  0.5809050252428278  0.544713955023326  1.0000
  O   O8        1.0  0.22675284510478377  0.14497385150752962  0.08409055322408676  1.0000
  O   O9        1.0  0.44005333082168363  0.9582632181700319  0.3603746708977269  1.0000
  O   O10       1.0  0.751449721341487  0.4720434150658548  0.8579157465137541  1.0000
  F   F1        1.0  0.08607585541903973  0.6105146073387004  0.46146979136392474  1.0000
  F   F2        1.0  0.18085356522351503  0.19321039505302906  0.31551384180784225  1.0000
data_image95
_chemical_formula_structural       Ca2P2H8O10F2
_chemical_formula_sum              "Ca2 P2 H8 O10 F2"
_cell_length_a       8.748547242261026
_cell_length_b       6.5292717768421165
_cell_length_c       5.804229554730758
_cell_angle_alpha    118.85637513684739
_cell_angle_beta     110.64940913561757
_cell_angle_gamma    94.26336680621436

_space_group_name_H-M_alt    "P 1"
_space_group_IT_number       1

loop_
  _space_group_symop_operation_xyz
  'x, y, z'

loop_
  _atom_site_type_symbol
  _atom_site_label
  _atom_site_symmetry_multiplicity
  _atom_site_fract_x
  _atom_site_fract_y
  _atom_site_fract_z
  _atom_site_occupancy
  Ca  Ca1       1.0  0.4602957321330905  0.5455880705267191  0.2150516537949443  1.0000
  Ca  Ca2       1.0  0.6875496811699122  0.6402349229902029  0.06883199885487556  1.0000
  P   P1        1.0  0.6033345414325595  0.36598795949248597  0.4519755379296839  1.0000
  P   P2        1.0  0.24196135299280286  0.24348548101261258  0.967507959343493  1.0000
  H   H1        1.0  0.6000390083063394  0.1312909433618188  0.7219145182170905  1.0000
  H   H2        1.0  0.4558168422081508  0.5221798890270293  0.15345811052247882  1.0000
  H   H3        1.0  0.3503755816491321  0.18345526419579983  0.5233850572258234  1.0000
  H   H4        1.0  0.9189322791062295  0.5322751915082335  0.20320833544246852  1.0000
  H   H5        1.0  0.18579790368676186  0.6557237021625042  0.5533131510019302  1.0000
  H   H6        1.0  0.5482377691660076  0.4651890251552686  0.1890890330541879  1.0000
  H   H7        1.0  0.7903520666295663  0.7738706568488851  0.3450419893488288  1.0000
  H   H8        1.0  0.5454134907340631  0.9932690081186593  0.21255867113359272  1.0000
  O   O1        1.0  0.24202964711003006  0.749976895400323  0.630585920298472  1.0000
  O   O2        1.0  0.5483425199927296  0.016056147986091673  0.2811151170753874  1.0000
  O   O3        1.0  0.3607134640624281  0.5016166442655958  0.2290839581983164  1.0000
  O   O4        1.0  0.007107271107088309  0.8958020019344985  0.3127840468659997  1.0000
  O   O5        1.0  0.04317876324057579  0.9857749850489199  0.26014549867250025  1.0000
  O   O6        1.0  0.3123229341581464  0.8823535270057619  0.489136177347973  1.0000
  O   O7        1.0  0.32182993507012725  0.2889145308872685  0.5703340987674892  1.0000
  O   O8        1.0  0.28551250661257654  0.8392058170866221  0.8262953581288457  1.0000
  O   O9        1.0  0.620316916028969  0.4768128029536456  0.26773164614860434  1.0000
  O   O10       1.0  0.4249855852685869  0.6518569602631032  0.06172561598941684  1.0000
  F   F1        1.0  0.9925478538498282  0.963299305527471  0.06028019869700074  1.0000
  F   F2        1.0  0.42025980446487665  0.8636832069605589  0.20062835700809956  1.0000
data_image96
_chemical_formula_structural       Ca2P2H8O10F2
_chemical_formula_sum              "Ca2 P2 H8 O10 F2"
_cell_length_a       8.748547242261026
_cell_length_b       6.5292717768421165
_cell_length_c       5.804229554730758
_cell_angle_alpha    118.85637513684739
_cell_angle_beta     110.64940913561757
_cell_angle_gamma    94.26336680621436

_space_group_name_H-M_alt    "P 1"
_space_group_IT_number       1

loop_
  _space_group_symop_operation_xyz
  'x, y, z'

loop_
  _atom_site_type_symbol
  _atom_site_label
  _atom_site_symmetry_multiplicity
  _atom_site_fract_x
  _atom_site_fract_y
  _atom_site_fract_z
  _atom_site_occupancy
  Ca  Ca1       1.0  0.47377068316563964  0.0025474224239587784  0.00351872481405735  1.0000
  Ca  Ca2       1.0  0.9511639091651887  0.7880167327821255  0.9492592979222536  1.0000
  P   P1        1.0  0.8041654485277832  0.14639866346260533  0.11606986174592748  1.0000
  P   P2        1.0  0.3081278707832098  0.6866097413003445  0.10393106658011675  1.0000
  H   H1        1.0  0.949856108170934  0.33177257888019085  0.010418473742902279  1.0000
  H   H2        1.0  0.360704239574261  0.2533566737547517  0.23152436036616564  1.0000
  H   H3        1.0  0.259984286269173  0.848994417116046  0.012200998142361641  1.0000
  H   H4        1.0  0.896900124847889  0.25731959845870733  0.0577353008557111  1.0000
  H   H5        1.0  0.9382797721773386  0.740852314978838  0.736994281411171  1.0000
  H   H6        1.0  0.044429364148527384  0.620997693244135  0.005608003586530685  1.0000
  H   H7        1.0  0.5773758945288137  0.6592283955542371  0.9476711973547935  1.0000
  H   H8        1.0  0.2229851249139756  0.3228166876360774  0.060778232058510184  1.0000
  O   O1        1.0  0.1380613879300654  0.23149869602639228  0.7395201670005918  1.0000
  O   O2        1.0  0.3815585292468313  0.7448484271299094  0.9661922625964507  1.0000
  O   O3        1.0  0.2106833073485177  0.5045964004821144  0.12064667767845094  1.0000
  O   O4        1.0  0.35721515549812466  0.7337648728862405  0.5266464650630951  1.0000
  O   O5        1.0  0.7673574378713965  0.42096898099407554  0.9111502810847014  1.0000
  O   O6        1.0  0.4244193602062296  0.70744888484478  0.013469161000102758  1.0000
  O   O7        1.0  0.8180042364401743  0.948926905519329  0.8740994036197662  1.0000
  O   O8        1.0  0.4622675396967679  0.17651819996535778  0.11433406500145793  1.0000
  O   O9        1.0  0.9204045406659134  0.02815497387200594  0.24911398504627869  1.0000
  O   O10       1.0  0.26012142209219746  0.5474792395252734  0.7463831454515457  1.0000
  F   F1        1.0  0.6415328485891223  0.17436689924215898  0.7279810234904289  1.0000
  F   F2        1.0  0.41775298211723566  0.8974337410181761  0.5133892204612494  1.0000
data_image97
_chemical_formula_structural       Ca2P2H8O10F2
_chemical_formula_sum              "Ca2 P2 H8 O10 F2"
_cell_length_a       8.748547242261026
_cell_length_b       6.5292717768421165
_cell_length_c       5.804229554730758
_cell_angle_alpha    118.85637513684739
_cell_angle_beta     110.64940913561757
_cell_angle_gamma    94.26336680621436

_space_group_name_H-M_alt    "P 1"
_space_group_IT_number       1

loop_
  _space_group_symop_operation_xyz
  'x, y, z'

loop_
  _atom_site_type_symbol
  _atom_site_label
  _atom_site_symmetry_multiplicity
  _atom_site_fract_x
  _atom_site_fract_y
  _atom_site_fract_z
  _atom_site_occupancy
  Ca  Ca1       1.0  0.07053615106269717  0.4533561784774065  0.5480790175497532  1.0000
  Ca  Ca2       1.0  0.8306154613383114  0.9822816476225853  0.7126655075699091  1.0000
  P   P1        1.0  0.4253492713905871  0.21862663753563538  0.6123555305530317  1.0000
  P   P2        1.0  0.33567441208288074  0.8899259800091386  0.006368657108396292  1.0000
  H   H1        1.0  0.16709092042583507  0.9732622001320124  0.07250728993676603  1.0000
  H   H2        1.0  0.5342674583662301  0.18923209561035037  0.1908321133814752  1.0000
  H   H3        1.0  0.09007065711193718  0.2524165380746126  0.828138206154108  1.0000
  H   H4        1.0  0.16064912639558315  0.6424981011077762  0.28596383542753756  1.0000
  H   H5        1.0  0.16983216907829046  0.5408520363271236  0.8254232183098793  1.0000
  H   H6        1.0  0.17350266315042973  0.6525687064242902  0.187131266342476  1.0000
  H   H7        1.0  0.06425159890204668  0.9164685176219791  0.030336135998368263  1.0000
  H   H8        1.0  0.008856836531776935  0.7090779379941523  0.19212087197229266  1.0000
  O   O1        1.0  0.5346947736106813  0.29108636057935655  0.06312051764689386  1.0000
  O   O2        1.0  0.7277412691619247  0.11852609878405929  0.6945293637691066  1.0000
  O   O3        1.0  0.4174078223586548  0.9066220425884239  0.04799319477751851  1.0000
  O   O4        1.0  0.5267343449595501  0.11687687458470464  0.46599807078018785  1.0000
  O   O5        1.0  0.9981740266084671  0.5828585093840957  0.18020752631127834  1.0000
  O   O6        1.0  0.22978003023308702  0.6747586748097092  0.1773099168203771  1.0000
  O   O7        1.0  0.5624211564427242  0.705562845338136  0.5202769758179784  1.0000
  O   O8        1.0  0.7661992113571614  0.5385934859514236  0.0213136849924922  1.0000
  O   O9        1.0  0.4708532126387581  0.7011759029701352  0.9823749674105784  1.0000
  O   O10       1.0  0.9984961733862292  0.9368601138703525  0.9899364374577999  1.0000
  F   F1        1.0  0.08523138985037804  0.9831550721428357  0.1310361777432263  1.0000
  F   F2        1.0  0.5360637092962861  0.056341854855418205  0.948550695553422  1.0000
data_image98
_chemical_formula_structural       Ca2P2H8O10F2
_chemical_formula_sum              "Ca2 P2 H8 O10 F2"
_cell_length_a       8.748547242261026
_cell_length_b       6.5292717768421165
_cell_length_c       5.804229554730758
_cell_angle_alpha    118.85637513684739
_cell_angle_beta     110.64940913561757
_cell_angle_gamma    94.26336680621436

_space_group_name_H-M_alt    "P 1"
_space_group_IT_number       1

loop_
  _space_group_symop_operation_xyz
  'x, y, z'

loop_
  _atom_site_type_symbol
  _atom_site_label
  _atom_site_symmetry_multiplicity
  _atom_site_fract_x
  _atom_site_fract_y
  _atom_site_fract_z
  _atom_site_occupancy
  Ca  Ca1       1.0  0.9160479283891618  0.904684379696846  0.1010341439396143  1.0000
  Ca  Ca2       1.0  0.41217588470317423  0.7767000682651997  0.37801350746303797  1.0000
  P   P1        1.0  0.7174479762325063  0.37965683912625536  0.33179076144006103  1.0000
  P   P2        1.0  0.24516040226444602  0.11915815155953169  0.2529828620608896  1.0000
  H   H1        1.0  0.48555426034727134  0.6522101052105427  0.6008904006448574  1.0000
  H   H2        1.0  0.3402915519545786  0.1070855320431292  0.5534622482955456  1.0000
  H   H3        1.0  0.7875915899930988  0.16186021454632282  0.022697636857628822  1.0000
  H   H4        1.0  0.9385093930177391  0.0036902260035276413  0.21528338268399239  1.0000
  H   H5        1.0  0.873634141869843  0.15784113109111786  0.5271973237395287  1.0000
  H   H6        1.0  0.0923667517490685  0.1549425468838308  0.5179040094371885  1.0000
  H   H7        1.0  0.4287014715373516  0.8325406360672787  0.029825709760189056  1.0000
  H   H8        1.0  0.6583435136126354  0.0897780074737966  0.4050079947337508  1.0000
  O   O1        1.0  0.5574623164720833  0.48686000547604635  0.9186281368602067  1.0000
  O   O2        1.0  0.44002468916005455  0.6883481071563438  0.5054469013120979  1.0000
  O   O3        1.0  0.09050252300221473  0.7188669334282167  0.49555892654461786  1.0000
  O   O4        1.0  0.9953017609514063  0.6080438224598765  0.6760010840371251  1.0000
  O   O5        1.0  0.10447237966582179  0.7997247255407274  0.09480629535391927  1.0000
  O   O6        1.0  0.5463567837286973  0.053234187653288245  0.08245417498983443  1.0000
  O   O7        1.0  0.3519869785523042  0.1800057445652783  0.7229864686960354  1.0000
  O   O8        1.0  0.4040165984770283  0.6445993122179061  0.07668245164677501  1.0000
  O   O9        1.0  0.3168575483141467  0.37188128335401416  0.42393368027114775  1.0000
  O   O10       1.0  0.5113962262839777  0.47035873937420547  0.7657985910773277  1.0000
  F   F1        1.0  0.9851586986333132  0.3292946612345986  0.004314749501645565  1.0000
  F   F2        1.0  0.12661799881607294  0.890188017860055  0.3572796154767275  1.0000
data_image99
_chemical_formula_structural       Ca2P2H8O10F2
_chemical_formula_sum              "Ca2 P2 H8 O10 F2"
_cell_length_a       8.748547242261026
_cell_length_b       6.5292717768421165
_cell_length_c       5.804229554730758
_cell_angle_alpha    118.85637513684739
_cell_angle_beta     110.64940913561757
_cell_angle_gamma    94.26336680621436

_space_group_name_H-M_alt    "P 1"
_space_group_IT_number       1

loop_
  _space_group_symop_operation_xyz
  'x, y, z'

loop_
  _atom_site_type_symbol
  _atom_site_label
  _atom_site_symmetry_multiplicity
  _atom_site_fract_x
  _atom_site_fract_y
  _atom_site_fract_z
  _atom_site_occupancy
  Ca  Ca1       1.0  0.4333116225898266  0.004269890487194061  0.8670217888429761  1.0000
  Ca  Ca2       1.0  0.5422637003939599  0.9812552593648434  0.3945380300283432  1.0000
  P   P1        1.0  0.8127470182953402  0.3339901452418417  0.3136749219847843  1.0000
  P   P2        1.0  0.8208783287554979  0.17889554100111127  0.9541090300772339  1.0000
  H   H1        1.0  0.7519346771296114  0.2447342313826084  0.10475564864464104  1.0000
  H   H2        1.0  0.03154824010562152  0.17489106429275125  0.9923303504474461  1.0000
  H   H3        1.0  0.15034527554234955  0.5327774565666914  0.6535122524946928  1.0000
  H   H4        1.0  0.5605135578662157  0.2544341762550175  0.9480984343681484  1.0000
  H   H5        1.0  0.16987478453665972  0.6120670847594738  0.2980577200651169  1.0000
  H   H6        1.0  0.6800628944765776  0.7379715859133285  0.7238832341972739  1.0000
  H   H7        1.0  0.4640023692045361  0.247018345980905  0.6737710586749017  1.0000
  H   H8        1.0  0.812745978590101  0.6827175244688988  0.20454158238135278  1.0000
  O   O1        1.0  0.7608023602515459  0.5648868510033935  0.7537879028823227  1.0000
  O   O2        1.0  0.8211810087086633  0.25345020554959774  0.07251879462273791  1.0000
  O   O3        1.0  0.24904214040725492  0.1313771078712307  0.8938608244643547  1.0000
  O   O4        1.0  0.3350860933569493  0.6290444526821375  0.630995862185955  1.0000
  O   O5        1.0  0.6074723755009472  0.42946587735787034  0.6438743118196726  1.0000
  O   O6        1.0  0.6646973222086672  0.40373179921880364  0.40251325792632997  1.0000
  O   O7        1.0  0.04870018421206623  0.0885322040412575  0.3141344095347449  1.0000
  O   O8        1.0  0.0030338687356561422  0.6436027211602777  0.4161033979617059  1.0000
  O   O9        1.0  0.00036296050529927015  0.7353096222504973  0.22274185833521187  1.0000
  O   O10       1.0  2.1977757569402456e-05  0.0723078737501055  0.8411485087126493  1.0000
  F   F1        1.0  0.35171540081501007  0.5096994677442126  0.44409641856327653  1.0000
  F   F2        1.0  0.24689050763845444  0.45650786347687244  0.9436180349439383  1.0000
data_image100
_chemical_formula_structural       Ca2P2H8O10F2
_chemical_formula_sum              "Ca2 P2 H8 O10 F2"
_cell_length_a       8.748547242261026
_cell_length_b       6.5292717768421165
_cell_length_c       5.804229554730758
_cell_angle_alpha    118.85637513684739
_cell_angle_beta     110.64940913561757
_cell_angle_gamma    94.26336680621436

_space_group_name_H-M_alt    "P 1"
_space_group_IT_number       1

loop_
  _space_group_symop_operation_xyz
  'x, y, z'

loop_
  _atom_site_type_symbol
  _atom_site_label
  _atom_site_symmetry_multiplicity
  _atom_site_fract_x
  _atom_site_fract_y
  _atom_site_fract_z
  _atom_site_occupancy
  Ca  Ca1       1.0  0.8364832452498376  0.8158487230539322  0.8679381627589464  1.0000
  Ca  Ca2       1.0  0.931891318410635  0.7692085690796375  0.5128978732973337  1.0000
  P   P1        1.0  0.22828429751098156  0.2707465887069702  0.06431142141809687  1.0000
  P   P2        1.0  0.5135606536641717  0.2642351407557726  0.7126702833920717  1.0000
  H   H1        1.0  0.6146575433667749  0.13072856608778238  0.7958172197686508  1.0000
  H   H2        1.0  0.9004003400914371  0.3079016993287951  0.3234125296585262  1.0000
  H   H3        1.0  0.09517641209822614  0.1638413481414318  0.5217518135905266  1.0000
  H   H4        1.0  0.20683958381414413  0.551923873834312  0.1790367547655478  1.0000
  H   H5        1.0  0.7244648514315486  0.16730105131864548  0.3890836089849472  1.0000
  H   H6        1.0  0.13925273763015866  0.859518262790516  0.43488782725762576  1.0000
  H   H7        1.0  0.39210367493797094  0.897469455958344  0.8324288348667324  1.0000
  H   H8        1.0  0.33791057515190914  0.3783528101630509  0.41021548327989876  1.0000
  O   O1        1.0  0.7730178986676037  0.7612140474957414  0.6662610182538629  1.0000
  O   O2        1.0  0.09816142937052064  0.6550076059065759  0.5018177759484388  1.0000
  O   O3        1.0  0.7958536953374278  0.06296531518455595  0.14490133454091847  1.0000
  O   O4        1.0  0.03497394724399783  0.30729023134335876  0.6678385082632303  1.0000
  O   O5        1.0  0.5765892858617008  0.14140370348468423  0.9408191924449056  1.0000
  O   O6        1.0  0.95622964426002  0.893199278274551  0.2429055122192949  1.0000
  O   O7        1.0  0.30378902051597834  0.5040775733068585  0.8002464364981279  1.0000
  O   O8        1.0  0.29571403085719794  0.14068501931615174  0.6122761354781687  1.0000
  O   O9        1.0  0.9419568964513019  0.1484528195578605  0.8472655515906808  1.0000
  O   O10       1.0  0.0728999398452288  0.8189680823124945  0.6062628203071654  1.0000
  F   F1        1.0  0.03876260295510292  0.1599025767063722  0.5781468828208745  1.0000
  F   F2        1.0  0.1709649981930852  0.8539039380848408  0.9833551310002804  1.0000
data_image101
_chemical_formula_structural       Ca2P2H8O10F2
_chemical_formula_sum              "Ca2 P2 H8 O10 F2"
_cell_length_a       8.748547242261026
_cell_length_b       6.5292717768421165
_cell_length_c       5.804229554730758
_cell_angle_alpha    118.85637513684739
_cell_angle_beta     110.64940913561757
_cell_angle_gamma    94.26336680621436

_space_group_name_H-M_alt    "P 1"
_space_group_IT_number       1

loop_
  _space_group_symop_operation_xyz
  'x, y, z'

loop_
  _atom_site_type_symbol
  _atom_site_label
  _atom_site_symmetry_multiplicity
  _atom_site_fract_x
  _atom_site_fract_y
  _atom_site_fract_z
  _atom_site_occupancy
  Ca  Ca1       1.0  0.9395713084377348  0.9303441643714905  0.8258584355935454  1.0000
  Ca  Ca2       1.0  0.5533896035049111  0.3214925304055214  0.16516380105167627  1.0000
  P   P1        1.0  0.5875769451959059  0.1930838045082055  0.860285880160518  1.0000
  P   P2        1.0  0.29354319674894214  0.7628704332746565  0.7319401747081429  1.0000
  H   H1        1.0  0.3093481238465756  0.7973553789779544  0.15612446860177442  1.0000
  H   H2        1.0  0.4493736708536744  0.4578966012049932  0.44077184703201056  1.0000
  H   H3        1.0  0.5347743730380898  0.47396050952374935  0.43583633191883564  1.0000
  H   H4        1.0  0.7973404796794057  0.37636358523741364  0.9297921878751367  1.0000
  H   H5        1.0  0.10946049913764  0.3463261350989342  0.9820043295621872  1.0000
  H   H6        1.0  0.469981431029737  0.34196004626573995  0.7789486462716013  1.0000
  H   H7        1.0  0.16973153036087751  0.09609809645917267  0.7456833417527378  1.0000
  H   H8        1.0  0.42153487890027463  0.2171883531846106  0.15493926662020385  1.0000
  O   O1        1.0  0.4867270695976913  0.03337827295763418  0.4556753905490041  1.0000
  O   O2        1.0  0.5068510735291056  0.5921530650230125  0.18560402927687392  1.0000
  O   O3        1.0  0.040077495330478996  0.9587082344805822  0.286842001543846  1.0000
  O   O4        1.0  0.13488421744841617  0.440500614233315  0.06754946894943714  1.0000
  O   O5        1.0  0.34976531052961946  0.19594193203374743  0.5460012026596814  1.0000
  O   O6        1.0  0.7957921492052265  0.1344904089346528  0.8326398092322052  1.0000
  O   O7        1.0  0.1790504268137738  0.6866832076339051  0.47346482926514  1.0000
  O   O8        1.0  0.9469402844551951  0.7776231162715703  0.1676834672689438  1.0000
  O   O9        1.0  0.1244392121443525  0.6048088590614498  0.36133009660989046  1.0000
  O   O10       1.0  0.10461890242004301  0.05962022510357201  0.056755528785288334  1.0000
  F   F1        1.0  0.8645394640043378  0.3029605826595798  0.8012238997034729  1.0000
  F   F2        1.0  0.8487108508124948  0.9977294187992811  0.19018123485147953  1.0000
data_image102
_chemical_formula_structural       Ca2P2H8O10F2
_chemical_formula_sum              "Ca2 P2 H8 O10 F2"
_cell_length_a       8.748547242261026
_cell_length_b       6.5292717768421165
_cell_length_c       5.804229554730758
_cell_angle_alpha    118.85637513684739
_cell_angle_beta     110.64940913561757
_cell_angle_gamma    94.26336680621436

_space_group_name_H-M_alt    "P 1"
_space_group_IT_number       1

loop_
  _space_group_symop_operation_xyz
  'x, y, z'

loop_
  _atom_site_type_symbol
  _atom_site_label
  _atom_site_symmetry_multiplicity
  _atom_site_fract_x
  _atom_site_fract_y
  _atom_site_fract_z
  _atom_site_occupancy
  Ca  Ca1       1.0  0.6574668441899121  0.10341284610331059  0.47043717931956053  1.0000
  Ca  Ca2       1.0  0.8685476037207991  0.17407061159610748  0.798642635345459  1.0000
  P   P1        1.0  0.2727007975336164  0.3286105209845118  0.5448009966639802  1.0000
  P   P2        1.0  0.7387510188855231  0.3575791697949171  0.8900240182410926  1.0000
  H   H1        1.0  0.9483633657218888  0.5269557321444154  0.8949366502929479  1.0000
  H   H2        1.0  0.7163373432122171  0.4683146292954916  0.4047480821609497  1.0000
  H   H3        1.0  0.818556118349079  0.48205269034951925  0.9969533663243055  1.0000
  H   H4        1.0  0.19306433107703924  0.6730063748545945  0.9664182079723105  1.0000
  H   H5        1.0  0.9689482226967812  0.9324104078114033  0.9325231984257698  1.0000
  H   H6        1.0  0.3873547832481563  0.7881474238529336  0.12753859104122967  1.0000
  H   H7        1.0  0.8059788100654259  0.627356872195378  0.47900551557540894  1.0000
  H   H8        1.0  0.1379735663649626  0.7185439141467214  0.7663938691839576  1.0000
  O   O1        1.0  0.5409440938383341  0.5931020279822405  0.618260555434972  1.0000
  O   O2        1.0  0.7399577055621194  0.22482335555832833  0.030044833838474005  1.0000
  O   O3        1.0  0.392249508673558  0.4640513771446422  0.17780319665325806  1.0000
  O   O4        1.0  0.8363535511962255  0.5362288937903941  0.02016980480402708  1.0000
  O   O5        1.0  0.5238885721191764  0.30095242662355304  0.5601766668260098  1.0000
  O   O6        1.0  0.8569862573494902  0.2046366548165679  0.0727543004322797  1.0000
  O   O7        1.0  0.37565666483715177  0.3555080416845158  0.8824317594990134  1.0000
  O   O8        1.0  0.8703213130356744  0.6286160820163786  0.006621340289711952  1.0000
  O   O9        1.0  0.7654775609262288  0.07789819757454097  0.35557799407979473  1.0000
  O   O10       1.0  0.013446345092233969  0.5098975419532508  0.9408763246610761  1.0000
  F   F1        1.0  0.7439916552975774  0.6269786169286817  0.1278224210254848  1.0000
  F   F2        1.0  0.3689498398452997  0.8035769648849964  0.03331644646823406  1.0000
data_image103
_chemical_formula_structural       Ca2P2H8O10F2
_chemical_formula_sum              "Ca2 P2 H8 O10 F2"
_cell_length_a       8.748547242261026
_cell_length_b       6.5292717768421165
_cell_length_c       5.804229554730758
_cell_angle_alpha    118.85637513684739
_cell_angle_beta     110.64940913561757
_cell_angle_gamma    94.26336680621436

_space_group_name_H-M_alt    "P 1"
_space_group_IT_number       1

loop_
  _space_group_symop_operation_xyz
  'x, y, z'

loop_
  _atom_site_type_symbol
  _atom_site_label
  _atom_site_symmetry_multiplicity
  _atom_site_fract_x
  _atom_site_fract_y
  _atom_site_fract_z
  _atom_site_occupancy
  Ca  Ca1       1.0  0.45559753524139524  0.013907041400671005  0.4871933897957206  1.0000
  Ca  Ca2       1.0  0.13495910842902958  0.7001899965107441  0.049461688846349716  1.0000
  P   P1        1.0  0.9741570536280051  0.5378062261734158  0.8254112837021239  1.0000
  P   P2        1.0  0.10779882594943047  0.6973054753616452  0.5265733897686005  1.0000
  H   H1        1.0  0.8726170799636748  0.8297688979655504  0.7934276015730575  1.0000
  H   H2        1.0  0.5318928958149627  0.8183058298545802  0.12102294899523258  1.0000
  H   H3        1.0  0.4436695951735601  0.417991004884243  0.9322417043149471  1.0000
  H   H4        1.0  0.6552139739505947  0.8017010600306094  0.7214301981730387  1.0000
  H   H5        1.0  0.3704645596444607  0.29595085978507996  0.7849122881889343  1.0000
  H   H6        1.0  0.46688564866781235  0.47857141529675573  0.6166590510401875  1.0000
  H   H7        1.0  0.1367894740542397  0.42463489063084126  0.3360550501383841  1.0000
  H   H8        1.0  0.9989726833300665  0.16679856227710843  0.8546180534176528  1.0000
  O   O1        1.0  0.17025260510854423  0.14384750384488143  0.136021978687495  1.0000
  O   O2        1.0  0.028953766101039946  0.8611759837949648  0.3008902394794859  1.0000
  O   O3        1.0  0.2186190655484097  0.8959946910035796  0.17750726640224457  1.0000
  O   O4        1.0  0.9795982652940438  0.37194158835336566  0.8780211820267141  1.0000
  O   O5        1.0  0.3037260826677084  0.5126264537684619  0.848256740020588  1.0000
  O   O6        1.0  0.9375895745324669  0.7278899613302201  0.7227057402487844  1.0000
  O   O7        1.0  0.7957139221252874  0.9989558312809095  0.022364102536812425  1.0000
  O   O8        1.0  0.9256327693583444  0.4072346107568592  0.3072479725815356  1.0000
  O   O9        1.0  0.2070064902654849  0.09419106203131378  0.9471384596254211  1.0000
  O   O10       1.0  0.5271473613793205  0.8538129278458655  0.44100529607385397  1.0000
  F   F1        1.0  0.4882287560030818  0.008453908609226346  0.31549799302592874  1.0000
  F   F2        1.0  0.2825015624985099  0.6541658416390419  0.21107129380106926  1.0000
data_image104
_chemical_formula_structural       Ca2P2H8O10F2
_chemical_formula_sum              "Ca2 P2 H8 O10 F2"
_cell_length_a       8.748547242261026
_cell_length_b       6.5292717768421165
_cell_length_c       5.804229554730758
_cell_angle_alpha    118.85637513684739
_cell_angle_beta     110.64940913561757
_cell_angle_gamma    94.26336680621436

_space_group_name_H-M_alt    "P 1"
_space_group_IT_number       1

loop_
  _space_group_symop_operation_xyz
  'x, y, z'

loop_
  _atom_site_type_symbol
  _atom_site_label
  _atom_site_symmetry_multiplicity
  _atom_site_fract_x
  _atom_site_fract_y
  _atom_site_fract_z
  _atom_site_occupancy
  Ca  Ca1       1.0  0.6957517131231725  0.23952962085604668  0.26530330441892147  1.0000
  Ca  Ca2       1.0  0.7868257334921509  0.507360776886344  0.8409569831565022  1.0000
  P   P1        1.0  0.8447380563011393  0.21907732967520133  0.0405089516134467  1.0000
  P   P2        1.0  0.8221073197200894  0.8386285793967545  0.9317153205629438  1.0000
  H   H1        1.0  0.6341545967152342  0.013270236551761627  0.009995466214604676  1.0000
  H   H2        1.0  0.3333683841628954  0.9358139315881999  0.5538092353381217  1.0000
  H   H3        1.0  0.13427501879050396  0.24866838101297617  0.2301601953804493  1.0000
  H   H4        1.0  0.2684774645604193  0.05863605113700032  0.1828282322967425  1.0000
  H   H5        1.0  0.03867608681321144  0.35910340026021004  0.35748913139104843  1.0000
  H   H6        1.0  0.7665120179299265  0.6039520920603536  0.8174535264261067  1.0000
  H   H7        1.0  0.664853744674474  0.7645569883752614  0.9044835800305009  1.0000
  H   H8        1.0  0.5131181084434502  0.5134944603778422  0.7782826104667038  1.0000
  O   O1        1.0  0.1028722480405122  0.7858258681953885  0.04357738047838211  1.0000
  O   O2        1.0  0.8682917316473322  0.6118818022077903  0.6755222884239629  1.0000
  O   O3        1.0  0.678155839399551  0.7496156903216615  0.3587313372408971  1.0000
  O   O4        1.0  0.6236045280966209  0.04264609329402447  0.20922955544665456  1.0000
  O   O5        1.0  0.5629215105436742  0.4819030463695526  0.06416533840820193  1.0000
  O   O6        1.0  0.22535498390789144  0.5853131478652358  0.186553702224046  1.0000
  O   O7        1.0  0.04863156925421208  0.8563815176021308  0.38490786449983716  1.0000
  O   O8        1.0  0.3914330799598247  0.2907312838360667  0.7411207067780197  1.0000
  O   O9        1.0  0.4029108554823324  0.4664073984604329  0.7103388256509788  1.0000
  O   O10       1.0  0.3658104026108049  0.979496207786724  0.09525301540270448  1.0000
  F   F1        1.0  0.11660673469305038  0.8808859803830273  0.9591791299171746  1.0000
  F   F2        1.0  0.788789221085608  0.7123919799923897  0.3980041779577732  1.0000
data_image105
_chemical_formula_structural       Ca2P2H8O10F2
_chemical_formula_sum              "Ca2 P2 H8 O10 F2"
_cell_length_a       8.748547242261026
_cell_length_b       6.5292717768421165
_cell_length_c       5.804229554730758
_cell_angle_alpha    118.85637513684739
_cell_angle_beta     110.64940913561757
_cell_angle_gamma    94.26336680621436

_space_group_name_H-M_alt    "P 1"
_space_group_IT_number       1

loop_
  _space_group_symop_operation_xyz
  'x, y, z'

loop_
  _atom_site_type_symbol
  _atom_site_label
  _atom_site_symmetry_multiplicity
  _atom_site_fract_x
  _atom_site_fract_y
  _atom_site_fract_z
  _atom_site_occupancy
  Ca  Ca1       1.0  0.9932187469676137  0.9683013372123241  0.800814863294363  1.0000
  Ca  Ca2       1.0  0.01611412689089775  0.7580873612314463  0.20868939813226461  1.0000
  P   P1        1.0  0.32395379815716296  0.7122699604806257  0.792429851484485  1.0000
  P   P2        1.0  0.521202108822763  0.656731472350657  0.540554805425927  1.0000
  H   H1        1.0  0.1904807208920829  0.7947666430845857  0.33654550107894465  1.0000
  H   H2        1.0  0.26680449850391597  0.9707404647342628  0.9463310362771153  1.0000
  H   H3        1.0  0.6072155435394961  0.9066081987693906  0.4113246016204357  1.0000
  H   H4        1.0  0.09960609627887607  0.6817467007786036  0.9461380372522399  1.0000
  H   H5        1.0  0.429054195061326  0.24377287551760674  0.4091367572546005  1.0000
  H   H6        1.0  0.3732463128399104  0.9832023163326085  0.7081485397648066  1.0000
  H   H7        1.0  0.467536284821108  0.18377382587641478  0.19791381154209375  1.0000
  H   H8        1.0  0.0810191406053491  0.4305464415811002  0.46655523497611284  1.0000
  O   O1        1.0  0.3677906906232238  0.5952700952475425  0.23555278684943914  1.0000
  O   O2        1.0  0.7834898306755349  0.8339870313648134  0.6985857820836827  1.0000
  O   O3        1.0  0.5107208910485497  0.13887819659430534  0.1948554792907089  1.0000
  O   O4        1.0  0.15135464617196703  0.3315257173962891  0.17361341509968042  1.0000
  O   O5        1.0  0.036908095236867666  0.36678164964541793  0.327819098951295  1.0000
  O   O6        1.0  0.18731940210273024  0.783793987473473  0.9834277320187539  1.0000
  O   O7        1.0  0.5357573089422658  0.5631301988614723  0.34856977581512183  1.0000
  O   O8        1.0  0.39639167254790664  0.6027551244478673  0.06788853323087096  1.0000
  O   O9        1.0  0.010108842281624675  0.5045169561635703  0.5630990691715851  1.0000
  O   O10       1.0  0.31907849472918315  0.09969122940674424  0.21756196999922395  1.0000
  F   F1        1.0  0.9164160043001175  0.6600019813631661  0.12835164135321975  1.0000
  F   F2        1.0  0.9991889400407672  0.7268686350435019  0.7096756342798471  1.0000
data_image106
_chemical_formula_structural       Ca2P2H8O10F2
_chemical_formula_sum              "Ca2 P2 H8 O10 F2"
_cell_length_a       8.748547242261026
_cell_length_b       6.5292717768421165
_cell_length_c       5.804229554730758
_cell_angle_alpha    118.85637513684739
_cell_angle_beta     110.64940913561757
_cell_angle_gamma    94.26336680621436

_space_group_name_H-M_alt    "P 1"
_space_group_IT_number       1

loop_
  _space_group_symop_operation_xyz
  'x, y, z'

loop_
  _atom_site_type_symbol
  _atom_site_label
  _atom_site_symmetry_multiplicity
  _atom_site_fract_x
  _atom_site_fract_y
  _atom_site_fract_z
  _atom_site_occupancy
  Ca  Ca1       1.0  0.3336884630843997  0.35890564136207104  0.9500765949487686  1.0000
  Ca  Ca2       1.0  0.8662735822144896  0.9351165499538183  0.10717167239636183  1.0000
  P   P1        1.0  0.3497318308800459  0.5531977703794837  0.7529777184936393  1.0000
  P   P2        1.0  0.619321595877409  0.14728419249877334  0.8022734764963388  1.0000
  H   H1        1.0  0.8583565197768621  0.15596137195825577  0.2853437657468021  1.0000
  H   H2        1.0  0.9822661341167986  0.25888709277205635  0.33751033805310726  1.0000
  H   H3        1.0  0.35212721081188647  0.04154949728399515  0.2594405338168144  1.0000
  H   H4        1.0  0.4054951872676611  0.7515339171513915  0.0010642276611179113  1.0000
  H   H5        1.0  0.8482547979801893  0.8771357834339142  0.2435147985816002  1.0000
  H   H6        1.0  0.7447654546704143  0.8538449062616564  0.030828292132355273  1.0000
  H   H7        1.0  0.6058964056428522  0.13034060562495142  0.6576777901500463  1.0000
  H   H8        1.0  0.5787872696528211  0.8054921366274357  0.8578504559118301  1.0000
  O   O1        1.0  0.7195882052183151  0.013712267711525783  0.1559202428907156  1.0000
  O   O2        1.0  0.22042417613556609  0.863901408854872  0.7523556494852528  1.0000
  O   O3        1.0  0.4064453379251063  0.5311816511675715  0.6821379093453288  1.0000
  O   O4        1.0  0.4118993911979487  0.06360357720404863  0.44835782982409  1.0000
  O   O5        1.0  0.9876972651109099  0.9641518467105925  0.9049386600963771  1.0000
  O   O6        1.0  0.2966731487540528  0.6321060489863157  0.6916447405237705  1.0000
  O   O7        1.0  0.407642989535816  0.8523720178054646  0.8980758193647489  1.0000
  O   O8        1.0  0.2641328115714714  0.6486471462994814  0.4862337470985949  1.0000
  O   O9        1.0  0.8097414709045552  0.7297288321424276  0.5058080060407519  1.0000
  O   O10       1.0  0.6229219652686879  0.3022902673110366  0.49831955367699265  1.0000
  F   F1        1.0  0.6851376537233591  0.2624112871126272  0.9542519771493971  1.0000
  F   F2        1.0  0.9536470687016845  0.20374325849115849  0.5015373639762402  1.0000
data_image107
_chemical_formula_structural       Ca2P2H8O10F2
_chemical_formula_sum              "Ca2 P2 H8 O10 F2"
_cell_length_a       8.748547242261026
_cell_length_b       6.5292717768421165
_cell_length_c       5.804229554730758
_cell_angle_alpha    118.85637513684739
_cell_angle_beta     110.64940913561757
_cell_angle_gamma    94.26336680621436

_space_group_name_H-M_alt    "P 1"
_space_group_IT_number       1

loop_
  _space_group_symop_operation_xyz
  'x, y, z'

loop_
  _atom_site_type_symbol
  _atom_site_label
  _atom_site_symmetry_multiplicity
  _atom_site_fract_x
  _atom_site_fract_y
  _atom_site_fract_z
  _atom_site_occupancy
  Ca  Ca1       1.0  0.401267412584275  0.19295735098421574  0.19906790647655725  1.0000
  Ca  Ca2       1.0  0.4523827121593058  0.061445239931344986  0.950353161431849  1.0000
  P   P1        1.0  0.4895069708582014  0.05233777465764433  0.41178772135754116  1.0000
  P   P2        1.0  0.8039371874183416  0.6343308216892183  0.7800627034157515  1.0000
  H   H1        1.0  0.7205453544738702  0.29961769562214613  0.4834075518883765  1.0000
  H   H2        1.0  0.7148100370541215  0.6592558003903832  0.26746109034866095  1.0000
  H   H3        1.0  0.48670401635899907  0.984294249676168  0.7931550480425358  1.0000
  H   H4        1.0  0.34944942547008395  0.024558108067139983  0.13065051578450948  1.0000
  H   H5        1.0  0.9893298726528883  0.3846055082976818  0.0551970899105072  1.0000
  H   H6        1.0  0.21353074465878308  0.26909095811424777  0.35660840349737555  1.0000
  H   H7        1.0  0.8750079231103882  0.8350057282950729  0.7330088526941836  1.0000
  H   H8        1.0  0.08767203765455633  0.31398097099736333  0.3606636798940599  1.0000
  O   O1        1.0  0.8754186728037894  0.8138855849101674  0.27497659297659993  1.0000
  O   O2        1.0  0.5481061046157265  0.42640617163851857  0.05524037609575316  1.0000
  O   O3        1.0  0.5682426114799455  0.05982638645218685  0.4207845206838101  1.0000
  O   O4        1.0  0.81209390553704  0.7895638351328671  0.6275455481372774  1.0000
  O   O5        1.0  0.556955941952765  0.7585574886761606  0.056035265093669295  1.0000
  O   O6        1.0  0.24003184447064996  0.9845450820866972  0.47670598793774843  1.0000
  O   O7        1.0  0.30972761195153  0.2726263136137277  0.5769358397228643  1.0000
  O   O8        1.0  0.454984801937826  0.12715421547181904  0.09522200236096978  1.0000
  O   O9        1.0  0.18962862837361172  0.22189982794225216  0.14844908562372439  1.0000
  O   O10       1.0  0.22610169024301285  0.14450484490953386  0.6602791477926075  1.0000
  F   F1        1.0  0.267878545448184  0.9082889990531839  0.7547785635106266  1.0000
  F   F2        1.0  0.18175229895859957  0.47233022935688496  0.11172134429216385  1.0000
data_image108
_chemical_formula_structural       Ca2P2H8O10F2
_chemical_formula_sum              "Ca2 P2 H8 O10 F2"
_cell_length_a       8.748547242261026
_cell_length_b       6.5292717768421165
_cell_length_c       5.804229554730758
_cell_angle_alpha    118.85637513684739
_cell_angle_beta     110.64940913561757
_cell_angle_gamma    94.26336680621436

_space_group_name_H-M_alt    "P 1"
_space_group_IT_number       1

loop_
  _space_group_symop_operation_xyz
  'x, y, z'

loop_
  _atom_site_type_symbol
  _atom_site_label
  _atom_site_symmetry_multiplicity
  _atom_site_fract_x
  _atom_site_fract_y
  _atom_site_fract_z
  _atom_site_occupancy
  Ca  Ca1       1.0  0.565309667494148  0.21743335016071796  0.9100468158721924  1.0000
  Ca  Ca2       1.0  0.20168023649603128  0.6170897353440523  0.4885942963883281  1.0000
  P   P1        1.0  0.874463027343154  0.7623307079193182  0.6008203032542951  1.0000
  P   P2        1.0  0.9116579918190837  0.8003625776618719  0.6354076806455851  1.0000
  H   H1        1.0  0.42502680921461433  0.12455095071345568  0.3944545450794976  1.0000
  H   H2        1.0  0.29266125487629324  0.21642015624092892  0.7078910232521594  1.0000
  H   H3        1.0  0.36451603096793406  0.9348088772967458  0.9425381310284138  1.0000
  H   H4        1.0  0.7237512581050396  0.7684308246243745  0.9329220830695704  1.0000
  H   H5        1.0  0.08244645595550537  0.1111660860478878  0.08798626810312271  1.0000
  H   H6        1.0  0.3202544308733195  0.15124932292383164  0.062462567584589124  1.0000
  H   H7        1.0  0.23898655036464334  0.3231206275522709  0.5971742160618305  1.0000
  H   H8        1.0  0.8147987471311353  0.3475068202242255  0.6345346968155354  1.0000
  O   O1        1.0  0.167253025341779  0.6719281136174686  0.7135838475078344  1.0000
  O   O2        1.0  0.21931208297610283  0.9501694733626209  0.6621524323709309  1.0000
  O   O3        1.0  0.5025972831062973  0.8146774172200821  0.054870384105015546  1.0000
  O   O4        1.0  0.6036584236571798  0.073938746470958  0.05686850240454078  1.0000
  O   O5        1.0  0.8949386994354427  0.10637009143829346  0.6669065081514418  1.0000
  O   O6        1.0  0.43650351773248985  0.024299633456394076  0.2751096924766898  1.0000
  O   O7        1.0  0.6866654556943104  0.2395446915179491  0.7762392441509292  1.0000
  O   O8        1.0  0.9418064808123745  0.575227903900668  0.6707318832632154  1.0000
  O   O9        1.0  0.009979089489206672  0.6487480001524091  0.795567634748295  1.0000
  O   O10       1.0  0.1965602100463002  0.07039502309635282  0.48785316525027156  1.0000
  F   F1        1.0  0.913660510443151  0.7616052329540253  0.11315886536613107  1.0000
  F   F2        1.0  0.5766256200149655  0.6536842249333858  0.2910029999911785  1.0000
data_image109
_chemical_formula_structural       Ca2P2H8O10F2
_chemical_formula_sum              "Ca2 P2 H8 O10 F2"
_cell_length_a       8.748547242261026
_cell_length_b       6.5292717768421165
_cell_length_c       5.804229554730758
_cell_angle_alpha    118.85637513684739
_cell_angle_beta     110.64940913561757
_cell_angle_gamma    94.26336680621436

_space_group_name_H-M_alt    "P 1"
_space_group_IT_number       1

loop_
  _space_group_symop_operation_xyz
  'x, y, z'

loop_
  _atom_site_type_symbol
  _atom_site_label
  _atom_site_symmetry_multiplicity
  _atom_site_fract_x
  _atom_site_fract_y
  _atom_site_fract_z
  _atom_site_occupancy
  Ca  Ca1       1.0  0.04975131573155522  0.7287155259400606  0.20469626691192389  1.0000
  Ca  Ca2       1.0  0.30404225969687104  0.4919466618448496  0.7272534891963005  1.0000
  P   P1        1.0  0.6272307322360575  0.5028160177462269  0.7546147652901709  1.0000
  P   P2        1.0  0.544471079017967  0.44599845074117184  0.13344500726088881  1.0000
  H   H1        1.0  0.41618511034175754  0.7529144743457437  0.40198748890543357  1.0000
  H   H2        1.0  0.6577397581422701  0.1773995907860808  0.7311003585346043  1.0000
  H   H3        1.0  0.09120670567790512  0.21381993405520916  0.049059828743338585  1.0000
  H   H4        1.0  0.6281364019960165  0.17696235491894186  0.9988208113936707  1.0000
  H   H5        1.0  0.09508328326046467  0.1441388577222824  0.2847350761294365  1.0000
  H   H6        1.0  0.05187588033732027  0.03168479795567691  0.264116738922894  1.0000
  H   H7        1.0  0.20380276767536998  0.8633004307048395  0.505713271908462  1.0000
  H   H8        1.0  0.821612823754549  0.07975720567628741  0.7942841774784029  1.0000
  O   O1        1.0  0.6673559409100562  0.5891121401800774  0.6200266988016665  1.0000
  O   O2        1.0  0.6617151684040437  0.8892977212090045  0.13372977799735963  1.0000
  O   O3        1.0  0.3785780505568255  0.1819783581304364  0.24297992723586503  1.0000
  O   O4        1.0  0.30496675995527767  0.71293725958094  0.2905056709423661  1.0000
  O   O5        1.0  0.49702452728524804  0.4970630411989987  0.11205106740817428  1.0000
  O   O6        1.0  0.6751657829736359  0.06422320497222245  0.5785835739225149  1.0000
  O   O7        1.0  0.30717155255842954  0.5932815870037302  0.36635302810464054  1.0000
  O   O8        1.0  0.11913703789468855  0.6498499682638794  0.15409726463258266  1.0000
  O   O9        1.0  0.4159444054821506  0.34636404807679355  0.9415530901460443  1.0000
  O   O10       1.0  0.30352928423599224  0.43540141824632883  0.25994816655293107  1.0000
  F   F1        1.0  0.22838829457759857  0.5233218143694103  0.7418414447456598  1.0000
  F   F2        1.0  0.3498980235308409  0.7022848334163427  0.05428919568657875  1.0000
data_image110
_chemical_formula_structural       Ca2P2H8O10F2
_chemical_formula_sum              "Ca2 P2 H8 O10 F2"
_cell_length_a       8.748547242261026
_cell_length_b       6.5292717768421165
_cell_length_c       5.804229554730758
_cell_angle_alpha    118.85637513684739
_cell_angle_beta     110.64940913561757
_cell_angle_gamma    94.26336680621436

_space_group_name_H-M_alt    "P 1"
_space_group_IT_number       1

loop_
  _space_group_symop_operation_xyz
  'x, y, z'

loop_
  _atom_site_type_symbol
  _atom_site_label
  _atom_site_symmetry_multiplicity
  _atom_site_fract_x
  _atom_site_fract_y
  _atom_site_fract_z
  _atom_site_occupancy
  Ca  Ca1       1.0  0.04286303138360381  0.26627393439412117  0.5899511491879821  1.0000
  Ca  Ca2       1.0  0.19593747332692146  0.5992086790502071  0.7219999581575394  1.0000
  P   P1        1.0  0.38386934250593185  0.591799853136763  0.7037118133157492  1.0000
  P   P2        1.0  0.5647436301223934  0.8169943913817406  0.568039926700294  1.0000
  H   H1        1.0  0.3541694793966599  0.4139433391392231  0.9277116235462017  1.0000
  H   H2        1.0  0.7020848145475611  0.1055222696159035  0.773557236418128  1.0000
  H   H3        1.0  0.4398702963080723  0.20302463602274656  0.7198904510587454  1.0000
  H   H4        1.0  0.5853501111268997  0.9527761810459197  0.08044213755056262  1.0000
  H   H5        1.0  0.6179035343229771  0.4767639599740505  0.4482184797525406  1.0000
  H   H6        1.0  0.3111226440523751  0.23395368544152007  0.23228774778544903  1.0000
  H   H7        1.0  0.8565883527044207  0.6746527585200965  0.23382522398605943  1.0000
  H   H8        1.0  0.6324424097547308  0.26188803603872657  0.17077232187148184  1.0000
  O   O1        1.0  0.8182917481753975  0.4390818323154235  0.20932985981926322  1.0000
  O   O2        1.0  0.6914217803860083  0.5234026646139682  0.30715151358162984  1.0000
  O   O3        1.0  0.4870543884608196  0.10709187152679078  0.8629697908836533  1.0000
  O   O4        1.0  0.35611201103165513  0.11719198385253549  0.11490405537188053  1.0000
  O   O5        1.0  0.7810751851648092  0.05109793320298195  0.6386631284840405  1.0000
  O   O6        1.0  0.6839747042686213  0.6986545596737415  0.855610745260492  1.0000
  O   O7        1.0  0.901335540576838  0.2794135658768937  0.4213702045381069  1.0000
  O   O8        1.0  0.2072541534435004  0.5543799607548863  0.8281329825986177  1.0000
  O   O9        1.0  0.20286854810547084  0.5156883399467915  0.777587482065428  1.0000
  O   O10       1.0  0.7946911567541974  0.7879451890476048  0.7116938810795546  1.0000
  F   F1        1.0  0.7473860224708915  0.4146223491989076  0.1217507366091013  1.0000
  F   F2        1.0  0.5610088231042027  0.3304316755384207  0.5930967531166971  1.0000
data_image111
_chemical_formula_structural       Ca2P2H8O10F2
_chemical_formula_sum              "Ca2 P2 H8 O10 F2"
_cell_length_a       8.748547242261026
_cell_length_b       6.5292717768421165
_cell_length_c       5.804229554730758
_cell_angle_alpha    118.85637513684739
_cell_angle_beta     110.64940913561757
_cell_angle_gamma    94.26336680621436

_space_group_name_H-M_alt    "P 1"
_space_group_IT_number       1

loop_
  _space_group_symop_operation_xyz
  'x, y, z'

loop_
  _atom_site_type_symbol
  _atom_site_label
  _atom_site_symmetry_multiplicity
  _atom_site_fract_x
  _atom_site_fract_y
  _atom_site_fract_z
  _atom_site_occupancy
  Ca  Ca1       1.0  0.2999075339175761  0.31947813369333744  0.5868143076077104  1.0000
  Ca  Ca2       1.0  0.5972719280980527  0.3481280095875263  0.008817020803689957  1.0000
  P   P1        1.0  0.8386284848675132  0.9877232671715319  0.05610573571175337  1.0000
  P   P2        1.0  0.3956491183489561  0.8403379651717842  0.08493488980457187  1.0000
  H   H1        1.0  0.37376040051458403  0.9248202312737703  0.856088450353127  1.0000
  H   H2        1.0  0.2336323547642678  0.585808812349569  0.01770221535116434  1.0000
  H   H3        1.0  0.2017337520082947  0.046252649277448654  0.1605807989835739  1.0000
  H   H4        1.0  0.11123487073928118  0.3816977140959352  0.6281901341862977  1.0000
  H   H5        1.0  0.7949291616678238  0.8760717622935772  0.5340604111552238  1.0000
  H   H6        1.0  0.07873829174786806  0.21428243204718456  0.3020630218088627  1.0000
  H   H7        1.0  0.6369766739662737  0.4315647699404508  0.1344110411591828  1.0000
  H   H8        1.0  0.3823141223983839  0.677265448961407  0.1583546621259302  1.0000
  O   O1        1.0  0.6728746454464272  0.10405431926483288  0.3617392408195883  1.0000
  O   O2        1.0  0.12097477119823452  0.9044087829688578  0.10430923773674294  1.0000
  O   O3        1.0  0.7506307920702966  0.9007186159433331  0.565096397564048  1.0000
  O   O4        1.0  0.12070232423138805  0.7320521282963455  0.6948557128198445  1.0000
  O   O5        1.0  0.4436958278529346  0.5588391008786857  0.040534103056415915  1.0000
  O   O6        1.0  0.4907308382971678  0.8291357676498592  0.5268058755900711  1.0000
  O   O7        1.0  0.24820612370967865  0.4039465870009735  0.8550423899432644  1.0000
  O   O8        1.0  0.16725787869654596  0.3087717101443559  0.7904418366961181  1.0000
  O   O9        1.0  0.39397081354400143  0.7348514797631651  0.6114684027561452  1.0000
  O   O10       1.0  0.07675078347347153  0.7761222957633436  0.5241374992765486  1.0000
  F   F1        1.0  0.6944698095321655  0.06223156489431858  0.8157355664297938  1.0000
  F   F2        1.0  0.5399604430422187  0.2798671703785658  0.8121260339394212  1.0000
data_image112
_chemical_formula_structural       Ca2P2H8O10F2
_chemical_formula_sum              "Ca2 P2 H8 O10 F2"
_cell_length_a       8.748547242261026
_cell_length_b       6.5292717768421165
_cell_length_c       5.804229554730758
_cell_angle_alpha    118.85637513684739
_cell_angle_beta     110.64940913561757
_cell_angle_gamma    94.26336680621436

_space_group_name_H-M_alt    "P 1"
_space_group_IT_number       1

loop_
  _space_group_symop_operation_xyz
  'x, y, z'

loop_
  _atom_site_type_symbol
  _atom_site_label
  _atom_site_symmetry_multiplicity
  _atom_site_fract_x
  _atom_site_fract_y
  _atom_site_fract_z
  _atom_site_occupancy
  Ca  Ca1       1.0  0.63189747184515  0.1283731833100319  0.23426236771047115  1.0000
  Ca  Ca2       1.0  0.7521131532266736  0.834042388945818  0.9495864352211356  1.0000
  P   P1        1.0  0.6817852661479264  0.4776315940544009  0.0313160615041852  1.0000
  P   P2        1.0  0.19456814881414175  0.21075284108519554  0.6626506387256086  1.0000
  H   H1        1.0  0.15241383656393737  0.7189082382246852  0.7166549754329026  1.0000
  H   H2        1.0  0.9656211283290759  0.827349989907816  0.2731032255105674  1.0000
  H   H3        1.0  0.9673303479648894  0.4449890535324812  0.47923689149320126  1.0000
  H   H4        1.0  0.5561951044946909  0.5251577703747898  0.3510523336008191  1.0000
  H   H5        1.0  0.09003538265824318  0.21623870357871056  0.05137030780315399  1.0000
  H   H6        1.0  0.24865283258259296  0.6723955959896557  0.08553871419280767  1.0000
  H   H7        1.0  0.5452642961172387  0.5577175915241241  0.2759363600052893  1.0000
  H   H8        1.0  0.16849744552746415  0.9983377680182457  0.16894376394338906  1.0000
  O   O1        1.0  0.4720792743610218  0.17159815249033272  0.7300469013862312  1.0000
  O   O2        1.0  0.33140419007395394  0.20493154139512626  0.16697041975567117  1.0000
  O   O3        1.0  0.04769510147161782  0.8976570504310075  0.9369189886929234  1.0000
  O   O4        1.0  0.8959126446134178  0.7438811571337283  0.016764376312494278  1.0000
  O   O5        1.0  0.39173618517816067  0.12629565363749862  0.6643474132288247  1.0000
  O   O6        1.0  0.6039615559129743  0.5064104846678674  0.02148067788220942  1.0000
  O   O7        1.0  0.5636921171098948  0.3203070507152006  0.5195463616400957  1.0000
  O   O8        1.0  0.5427278862334788  0.1285584766883403  0.9910722270142287  1.0000
  O   O9        1.0  0.2785225873813033  0.2716380865313113  0.4539518195670098  1.0000
  O   O10       1.0  0.17696773666102672  0.012297901790589094  0.34356533735990524  1.0000
  F   F1        1.0  0.17440879438072443  0.06489799730479717  0.7489093141630292  1.0000
  F   F2        1.0  0.8583166366443038  0.9020810406655073  0.3122142010834068  1.0000
data_image113
_chemical_formula_structural       Ca2P2H8O10F2
_chemical_formula_sum              "Ca2 P2 H8 O10 F2"
_cell_length_a       8.748547242261026
_cell_length_b       6.5292717768421165
_cell_length_c       5.804229554730758
_cell_angle_alpha    118.85637513684739
_cell_angle_beta     110.64940913561757
_cell_angle_gamma    94.26336680621436

_space_group_name_H-M_alt    "P 1"
_space_group_IT_number       1

loop_
  _space_group_symop_operation_xyz
  'x, y, z'

loop_
  _atom_site_type_symbol
  _atom_site_label
  _atom_site_symmetry_multiplicity
  _atom_site_fract_x
  _atom_site_fract_y
  _atom_site_fract_z
  _atom_site_occupancy
  Ca  Ca1       1.0  0.3405232806690037  0.6241002772003412  0.48370717838406563  1.0000
  Ca  Ca2       1.0  0.398488353472203  0.8212749194353819  0.11111453734338284  1.0000
  P   P1        1.0  0.4293448464013636  0.5830131475813687  0.8443304393440485  1.0000
  P   P2        1.0  0.5754763209261  0.37671736534684896  0.8859352576546371  1.0000
  H   H1        1.0  0.2306031854241155  0.8301860941573977  0.6391596688772552  1.0000
  H   H2        1.0  0.04533174657262862  0.37765078753000125  0.8695199359208345  1.0000
  H   H3        1.0  0.33814680101932026  0.44569331407546997  0.6704719066619873  1.0000
  H   H4        1.0  0.2794391671195626  0.384459430584684  0.4193766996031627  1.0000
  H   H5        1.0  0.49984640814363956  0.24267549812793732  0.3734108507633209  1.0000
  H   H6        1.0  0.9455818620044738  0.5799775107880123  0.5272290669381618  1.0000
  H   H7        1.0  0.8484492439310998  0.5494744952302426  0.32520198728889227  1.0000
  H   H8        1.0  0.44378366344608366  0.18533211154863238  0.7505765233654529  1.0000
  O   O1        1.0  0.7266125610331073  0.760196064147749  0.8594897349830717  1.0000
  O   O2        1.0  0.034164664888521656  0.046613874608738115  0.2572830804856494  1.0000
  O   O3        1.0  0.2710347720712889  0.007772869867039844  0.23866212620851002  1.0000
  O   O4        1.0  0.7738978267880157  0.8829512903466821  0.3111175997182727  1.0000
  O   O5        1.0  0.14802156249061227  0.4933080938644707  0.8787399576976895  1.0000
  O   O6        1.0  0.9905442324234173  0.06768923299387097  0.14158942084759474  1.0000
  O   O7        1.0  0.6476828606100753  0.8328054938465357  0.018801843631081283  1.0000
  O   O8        1.0  0.16289520112331957  0.4842529413290322  0.6491672883275896  1.0000
  O   O9        1.0  0.3243613188387826  0.24582268646918237  0.4421958626189735  1.0000
  O   O10       1.0  0.4460428299535124  0.6051765333395451  0.5320753208361566  1.0000
  F   F1        1.0  0.7424566764384508  0.5090453736484051  0.9103946280665696  1.0000
  F   F2        1.0  0.12114216294139624  0.2475074790418148  0.873996990500018  1.0000
data_image114
_chemical_formula_structural       Ca2P2H8O10F2
_chemical_formula_sum              "Ca2 P2 H8 O10 F2"
_cell_length_a       8.748547242261026
_cell_length_b       6.5292717768421165
_cell_length_c       5.804229554730758
_cell_angle_alpha    118.85637513684739
_cell_angle_beta     110.64940913561757
_cell_angle_gamma    94.26336680621436

_space_group_name_H-M_alt    "P 1"
_space_group_IT_number       1

loop_
  _space_group_symop_operation_xyz
  'x, y, z'

loop_
  _atom_site_type_symbol
  _atom_site_label
  _atom_site_symmetry_multiplicity
  _atom_site_fract_x
  _atom_site_fract_y
  _atom_site_fract_z
  _atom_site_occupancy
  Ca  Ca1       1.0  0.21790989581495523  0.3565110843628645  0.6797475647181273  1.0000
  Ca  Ca2       1.0  0.5591876935213804  0.08809622377157211  0.6873936615884304  1.0000
  P   P1        1.0  0.49316118843853474  0.3652909886732232  0.23039180133491755  1.0000
  P   P2        1.0  0.3513986123725772  0.08485635742545128  0.7516244375146925  1.0000
  H   H1        1.0  0.14405219187028706  0.25413657538592815  0.5421466025291011  1.0000
  H   H2        1.0  0.651317211217247  0.13126439944608137  0.6844116649590433  1.0000
  H   H3        1.0  0.8904778837459162  0.9867057548835874  0.5351520217955112  1.0000
  H   H4        1.0  0.7006074320524931  0.44177254824899137  0.8832347311545163  1.0000
  H   H5        1.0  0.13179261796176434  0.5708119943737984  0.5573540925979614  1.0000
  H   H6        1.0  0.22408057982102036  0.17592635622713715  0.0702237319201231  1.0000
  H   H7        1.0  0.29146001883782446  0.5622563692741096  0.32513278163969517  1.0000
  H   H8        1.0  0.44479429617058486  0.6566551048308611  0.7000009251059964  1.0000
  O   O1        1.0  0.583821666194126  0.2542548792553134  0.47989627229981124  1.0000
  O   O2        1.0  0.13121362176025286  0.3084786890212854  0.4257344788638875  1.0000
  O   O3        1.0  0.06081489582720678  0.13913062642677687  0.4790677777818928  1.0000
  O   O4        1.0  0.8535878825350665  0.8885230179876089  0.49556905357167125  1.0000
  O   O5        1.0  0.05842457618564367  0.9867545096203685  0.6212762473151088  1.0000
  O   O6        1.0  0.4963692182500381  0.5146236140280962  0.9632779865060002  1.0000
  O   O7        1.0  0.7701562170404941  0.34544047340750694  0.4910140078281984  1.0000
  O   O8        1.0  0.4451697744661942  0.3348158283624798  0.07399067655205727  1.0000
  O   O9        1.0  0.20845406805165112  0.7560253611300141  0.9978934824466705  1.0000
  O   O10       1.0  0.5808582669869793  0.5625405826140195  0.511366680264473  1.0000
  F   F1        1.0  0.25782478135079145  0.6746624738443643  0.03665649238973856  1.0000
  F   F2        1.0  0.5434518437832594  0.18220419250428677  0.5036824644776061  1.0000
data_image115
_chemical_formula_structural       Ca2P2H8O10F2
_chemical_formula_sum              "Ca2 P2 H8 O10 F2"
_cell_length_a       8.748547242261026
_cell_length_b       6.5292717768421165
_cell_length_c       5.804229554730758
_cell_angle_alpha    118.85637513684739
_cell_angle_beta     110.64940913561757
_cell_angle_gamma    94.26336680621436

_space_group_name_H-M_alt    "P 1"
_space_group_IT_number       1

loop_
  _space_group_symop_operation_xyz
  'x, y, z'

loop_
  _atom_site_type_symbol
  _atom_site_label
  _atom_site_symmetry_multiplicity
  _atom_site_fract_x
  _atom_site_fract_y
  _atom_site_fract_z
  _atom_site_occupancy
  Ca  Ca1       1.0  0.4771798839792609  0.3223016485571861  0.3716353755444288  1.0000
  Ca  Ca2       1.0  0.8555644215084612  0.10871849581599236  0.9692702107131481  1.0000
  P   P1        1.0  0.18203732115216553  0.9463290232379222  0.6924885511398315  1.0000
  P   P2        1.0  0.047403027303516865  0.2123913220129907  0.6331035848706961  1.0000
  H   H1        1.0  0.05672475596657023  0.016809825785458088  0.9200032755034044  1.0000
  H   H2        1.0  0.28373874817043543  0.8474568591918796  0.9027293859981  1.0000
  H   H3        1.0  0.1468264031718718  0.5487271342426538  0.7214502301067114  1.0000
  H   H4        1.0  0.13350205216556787  0.3792503043077886  0.7822493042331189  1.0000
  H   H5        1.0  0.24729014188051224  0.8667237125337124  0.9415077790617943  1.0000
  H   H6        1.0  0.07468542223796248  0.6488610544183757  0.8542057340964675  1.0000
  H   H7        1.0  0.8556702225469053  0.4340738689061254  0.22543750004842877  1.0000
  H   H8        1.0  0.3350532784825191  0.16092200530692935  0.7815091570373625  1.0000
  O   O1        1.0  0.2322949537774548  0.1401657719979994  0.07019735919311643  1.0000
  O   O2        1.0  0.7957347668125294  0.46456332192974514  0.9829845088534057  1.0000
  O   O3        1.0  0.7141827904270031  0.7943736043816898  0.31117057294613915  1.0000
  O   O4        1.0  0.2082576073735254  0.722328681498766  0.8396217403933406  1.0000
  O   O5        1.0  0.6443351614288986  0.7135742926038802  0.4704111684113741  1.0000
  O   O6        1.0  0.7790422238322208  0.19235805561766028  0.30922542815096676  1.0000
  O   O7        1.0  0.9810866286279634  0.45217485283501446  0.853755549993366  1.0000
  O   O8        1.0  0.299557474325411  0.7480163457803428  0.5067135856952518  1.0000
  O   O9        1.0  0.06126774993026629  0.7426354403141886  0.7547432992141694  1.0000
  O   O10       1.0  0.8262462898564991  0.9270712831057608  0.04937370354309678  1.0000
  F   F1        1.0  0.5069843744859099  0.23577793990261853  0.05450291256420314  1.0000
  F   F2        1.0  0.6917704604566097  0.10164230316877365  0.028312424779869616  1.0000
data_image116
_chemical_formula_structural       Ca2P2H8O10F2
_chemical_formula_sum              "Ca2 P2 H8 O10 F2"
_cell_length_a       8.748547242261026
_cell_length_b       6.5292717768421165
_cell_length_c       5.804229554730758
_cell_angle_alpha    118.85637513684739
_cell_angle_beta     110.64940913561757
_cell_angle_gamma    94.26336680621436

_space_group_name_H-M_alt    "P 1"
_space_group_IT_number       1

loop_
  _space_group_symop_operation_xyz
  'x, y, z'

loop_
  _atom_site_type_symbol
  _atom_site_label
  _atom_site_symmetry_multiplicity
  _atom_site_fract_x
  _atom_site_fract_y
  _atom_site_fract_z
  _atom_site_occupancy
  Ca  Ca1       1.0  0.14475761586800218  0.6331728287041187  0.3177176406607032  1.0000
  Ca  Ca2       1.0  0.8109399632085115  0.16053939796984196  0.8939734119921923  1.0000
  P   P1        1.0  0.19434270868077874  0.1216212670551613  0.640380478464067  1.0000
  P   P2        1.0  0.5574241946451366  0.4179078028537333  0.8437569299712777  1.0000
  H   H1        1.0  0.038382532133255154  0.3499457845464349  0.4878212035400793  1.0000
  H   H2        1.0  0.4501041392504703  0.9724483417812735  0.567070150282234  1.0000
  H   H3        1.0  0.46712752571329474  0.9060597941279411  0.46921344101428986  1.0000
  H   H4        1.0  0.367471294477582  0.7278273887932301  0.22492570453323424  1.0000
  H   H5        1.0  0.40436954610049725  0.5904451683163643  0.6553722023963928  1.0000
  H   H6        1.0  0.9649830830749124  0.6152066759677837  0.47035238426178694  1.0000
  H   H7        1.0  0.4509185180068016  0.8156740763224661  0.38885241420939565  1.0000
  H   H8        1.0  0.24385179614182562  0.5490724658593535  0.8759201753418893  1.0000
  O   O1        1.0  0.21315124176908284  0.05364618028397672  0.4624172714538872  1.0000
  O   O2        1.0  0.9824687641303171  0.11561908407020383  0.8880652099614963  1.0000
  O   O3        1.0  0.9919035920174792  0.8820152763801161  0.153624275328184  1.0000
  O   O4        1.0  0.8201409049215727  0.4975723004899919  0.4398873448371887  1.0000
  O   O5        1.0  0.7128204400651157  0.40388355730101466  0.7495510904118419  1.0000
  O   O6        1.0  0.33839090846595354  0.16902761673554778  0.9778065625578165  1.0000
  O   O7        1.0  0.8385724888648838  0.360166946426034  0.831357627059333  1.0000
  O   O8        1.0  0.35517876816447824  0.11415893491357565  0.9938743368256837  1.0000
  O   O9        1.0  0.5366345985094085  0.24296564958058298  0.12647567474050447  1.0000
  O   O10       1.0  0.9161413937108591  0.7854468508157879  0.7593669174239039  1.0000
  F   F1        1.0  0.48508795630186796  0.36906118178740144  0.40162532520480454  1.0000
  F   F2        1.0  0.9367052242159843  0.4805513974279165  0.4962261001346633  1.0000
data_image117
_chemical_formula_structural       Ca2P2H8O10F2
_chemical_formula_sum              "Ca2 P2 H8 O10 F2"
_cell_length_a       8.748547242261026
_cell_length_b       6.5292717768421165
_cell_length_c       5.804229554730758
_cell_angle_alpha    118.85637513684739
_cell_angle_beta     110.64940913561757
_cell_angle_gamma    94.26336680621436

_space_group_name_H-M_alt    "P 1"
_space_group_IT_number       1

loop_
  _space_group_symop_operation_xyz
  'x, y, z'

loop_
  _atom_site_type_symbol
  _atom_site_label
  _atom_site_symmetry_multiplicity
  _atom_site_fract_x
  _atom_site_fract_y
  _atom_site_fract_z
  _atom_site_occupancy
  Ca  Ca1       1.0  0.6151183168403804  0.7120327968150377  0.24109691474586725  1.0000
  Ca  Ca2       1.0  0.6307500759139657  0.44652629643678665  0.5569513319060206  1.0000
  P   P1        1.0  0.17008211347274482  0.32807900005718693  0.3142915749922395  1.0000
  P   P2        1.0  0.2519241548143327  0.7151645165868104  0.5882870596833527  1.0000
  H   H1        1.0  0.6360337180667557  0.5891896514222026  0.7751593890779986  1.0000
  H   H2        1.0  0.8623998298717197  0.9524519869592041  0.08761733584105968  1.0000
  H   H3        1.0  0.7897588829509914  0.26419930532574654  0.033588359132409096  1.0000
  H   H4        1.0  0.659274716861546  0.3626955207437277  0.24828153708949685  1.0000
  H   H5        1.0  0.006775228306651115  0.776912547647953  0.010155804455280304  1.0000
  H   H6        1.0  0.11589994048699737  0.38589921868697274  0.9760437775403261  1.0000
  H   H7        1.0  0.6065708248643205  0.7329737229738384  0.15407243464142084  1.0000
  H   H8        1.0  0.9613408375298604  0.7031134814023972  0.6276676285779104  1.0000
  O   O1        1.0  0.32187158160377294  0.18601958171348087  0.20323481480591  1.0000
  O   O2        1.0  0.3656889028607111  0.7464294821984367  0.7811409295536578  1.0000
  O   O3        1.0  0.4976668607414467  0.5661722908262163  0.6117048118030652  1.0000
  O   O4        1.0  0.7993099602172151  0.3839171165600419  0.8224358828738332  1.0000
  O   O5        1.0  0.6068905652500689  0.2780369846150279  0.2656005781609565  1.0000
  O   O6        1.0  0.906051199810463  0.2780589556787163  0.8119366085156798  1.0000
  O   O7        1.0  0.3365270309150219  0.9416064864490181  0.04075975448358804  1.0000
  O   O8        1.0  0.9394720195559785  0.8708009601105005  0.5958281520288438  1.0000
  O   O9        1.0  0.41460263545741327  0.717333595501259  0.5074621581297833  1.0000
  O   O10       1.0  0.9008547312114388  0.18201089650392532  0.2965330737642944  1.0000
  F   F1        1.0  0.9103192985057831  0.5507546931039542  0.09191026678308845  1.0000
  F   F2        1.0  0.8051091022789478  0.06381071545183659  0.25597398297395557  1.0000
data_image118
_chemical_formula_structural       Ca2P2H8O10F2
_chemical_formula_sum              "Ca2 P2 H8 O10 F2"
_cell_length_a       8.748547242261026
_cell_length_b       6.5292717768421165
_cell_length_c       5.804229554730758
_cell_angle_alpha    118.85637513684739
_cell_angle_beta     110.64940913561757
_cell_angle_gamma    94.26336680621436

_space_group_name_H-M_alt    "P 1"
_space_group_IT_number       1

loop_
  _space_group_symop_operation_xyz
  'x, y, z'

loop_
  _atom_site_type_symbol
  _atom_site_label
  _atom_site_symmetry_multiplicity
  _atom_site_fract_x
  _atom_site_fract_y
  _atom_site_fract_z
  _atom_site_occupancy
  Ca  Ca1       1.0  0.5983585696667433  0.23308501951396465  0.17365024611353874  1.0000
  Ca  Ca2       1.0  0.3710375146474689  0.5495489835739136  0.13592331483960152  1.0000
  P   P1        1.0  0.49577454826794565  0.21837681956822053  0.8772690622135997  1.0000
  P   P2        1.0  0.4360591792501509  0.0062490846030414104  0.25570145156234503  1.0000
  H   H1        1.0  0.10748411511303857  0.4774975795298815  0.3387758871758706  1.0000
  H   H2        1.0  0.24210974432935473  0.8151608717162162  0.8896023826673627  1.0000
  H   H3        1.0  0.7989700289035682  0.07513936143368483  0.6583797615021467  1.0000
  H   H4        1.0  0.6440907046198845  0.09111144347116351  0.8463229076005518  1.0000
  H   H5        1.0  0.835779158398509  0.40458640828728676  0.5255588591098785  1.0000
  H   H6        1.0  0.07612104946747422  0.9029062620320474  0.3511567013338208  1.0000
  H   H7        1.0  0.935291952569969  0.09561576903797686  0.43680162774398923  1.0000
  H   H8        1.0  0.9313150625675917  0.703683587256819  0.9452529216650873  1.0000
  O   O1        1.0  0.0576501355972141  0.5517285615205765  0.7189517121296376  1.0000
  O   O2        1.0  0.6479577564259671  0.34904648886003997  0.590996170998551  1.0000
  O   O3        1.0  0.75006182135985  0.08374343780451454  0.5686656685429625  1.0000
  O   O4        1.0  0.008292607381008565  0.15263997856527567  0.41853172006085515  1.0000
  O   O5        1.0  0.2578318826854229  0.32804061099886894  0.015955480514094234  1.0000
  O   O6        1.0  0.9854030753631378  0.4678976940922439  0.08989569381810725  1.0000
  O   O7        1.0  0.7054328871308826  0.18628777051344514  0.670442016213201  1.0000
  O   O8        1.0  0.09358400746714324  0.8497340711764991  0.42908804467879236  1.0000
  O   O9        1.0  0.9049099419498816  0.4932670013513416  0.7233205635857303  1.0000
  O   O10       1.0  0.7124109396536369  0.9636255621444434  0.015731078572571278  1.0000
  F   F1        1.0  0.7639693394303322  0.6606888426467776  0.09979630052112043  1.0000
  F   F2        1.0  0.4166065361350775  0.04370361566543579  0.473127301200293  1.0000
data_image119
_chemical_formula_structural       Ca2P2H8O10F2
_chemical_formula_sum              "Ca2 P2 H8 O10 F2"
_cell_length_a       8.748547242261026
_cell_length_b       6.5292717768421165
_cell_length_c       5.804229554730758
_cell_angle_alpha    118.85637513684739
_cell_angle_beta     110.64940913561757
_cell_angle_gamma    94.26336680621436

_space_group_name_H-M_alt    "P 1"
_space_group_IT_number       1

loop_
  _space_group_symop_operation_xyz
  'x, y, z'

loop_
  _atom_site_type_symbol
  _atom_site_label
  _atom_site_symmetry_multiplicity
  _atom_site_fract_x
  _atom_site_fract_y
  _atom_site_fract_z
  _atom_site_occupancy
  Ca  Ca1       1.0  0.43167433282360435  0.7810072153806686  0.16432947386056185  1.0000
  Ca  Ca2       1.0  0.5205982306506485  0.13256994634866714  0.4370101736858487  1.0000
  P   P1        1.0  0.08472371334210038  0.14554128755116835  0.11783197429031134  1.0000
  P   P2        1.0  0.3910716460086405  0.9176173601299524  0.3919971324503422  1.0000
  H   H1        1.0  0.009897019248455763  0.44071357883512974  0.3719414665538352  1.0000
  H   H2        1.0  0.08511141360213514  0.6192489943932742  0.24016706878319383  1.0000
  H   H3        1.0  0.5808696022140794  0.11803673207759857  0.597514770925045  1.0000
  H   H4        1.0  0.494861519895494  0.5835007079876959  0.38886358635500073  1.0000
  H   H5        1.0  0.10147940367460251  0.36515794321894646  0.2815767973661423  1.0000
  H   H6        1.0  0.7416547858156264  0.6301371849040152  0.6886434629559517  1.0000
  H   H7        1.0  0.49890363367740065  0.707179926102981  0.5992399686947465  1.0000
  H   H8        1.0  0.060622419929131866  0.5817416422069073  0.35935234639327973  1.0000
  O   O1        1.0  0.45631366944871843  0.31842178365332074  0.8205603775568306  1.0000
  O   O2        1.0  0.5495851974301331  0.0930570964992512  0.3596006977604702  1.0000
  O   O3        1.0  0.4524444962225971  0.8320281090855133  0.7114294604034512  1.0000
  O   O4        1.0  0.3874090184690431  0.05685731256380677  0.9949726513586938  1.0000
  O   O5        1.0  0.31383369909599423  0.19182084733620286  0.9451696739997715  1.0000
  O   O6        1.0  0.9508515709894709  0.1571899673435837  0.7513181073591113  1.0000
  O   O7        1.0  0.6524547392036766  0.3477980652824044  0.5542652810690925  1.0000
  O   O8        1.0  0.8753255137708038  0.8010364496149123  0.12306414754129946  1.0000
  O   O9        1.0  0.2923085793154314  0.9715671609155834  0.5060441474197432  1.0000
  O   O10       1.0  0.5718543924449477  0.5031715626828372  0.12236773269250989  1.0000
  F   F1        1.0  0.10039127990603447  0.5832724918145686  0.228951578726992  1.0000
  F   F2        1.0  0.02888219989836216  0.46766391582787037  0.6469469780568033  1.0000
data_image120
_chemical_formula_structural       Ca2P2H8O10F2
_chemical_formula_sum              "Ca2 P2 H8 O10 F2"
_cell_length_a       8.748547242261026
_cell_length_b       6.5292717768421165
_cell_length_c       5.804229554730758
_cell_angle_alpha    118.85637513684739
_cell_angle_beta     110.64940913561757
_cell_angle_gamma    94.26336680621436

_space_group_name_H-M_alt    "P 1"
_space_group_IT_number       1

loop_
  _space_group_symop_operation_xyz
  'x, y, z'

loop_
  _atom_site_type_symbol
  _atom_site_label
  _atom_site_symmetry_multiplicity
  _atom_site_fract_x
  _atom_site_fract_y
  _atom_site_fract_z
  _atom_site_occupancy
  Ca  Ca1       1.0  0.16505384119227529  0.07999883964657784  0.879432013258338  1.0000
  Ca  Ca2       1.0  0.9574299855157733  0.30953270196914673  0.137885469943285  1.0000
  P   P1        1.0  0.08199523878283799  0.8346405705669895  0.8188992589712143  1.0000
  P   P2        1.0  0.7127878675237298  0.3507746262475848  0.6168256793171167  1.0000
  H   H1        1.0  0.10720999597106129  0.026788614690303802  0.034036642537103035  1.0000
  H   H2        1.0  0.11268388283497188  0.1929776316974312  0.12170396326109767  1.0000
  H   H3        1.0  0.5513063461985439  0.2680393485352397  0.26900255493819714  1.0000
  H   H4        1.0  0.16750878747552633  0.1516833445057273  0.3215567225124687  1.0000
  H   H5        1.0  0.964582696557045  0.09050877764821053  0.7325058951973915  1.0000
  H   H6        1.0  0.5104289965238422  0.21266927037504502  0.8710962161421776  1.0000
  H   H7        1.0  0.3714606099529192  0.35713314986787736  0.6184750692918897  1.0000
  H   H8        1.0  0.4915040051564574  0.3998701539821923  0.8614039104431868  1.0000
  O   O1        1.0  0.5378119999077171  0.048198930540820584  0.19946033949963748  1.0000
  O   O2        1.0  0.11449085916865442  0.38998211866419297  0.7343096710392274  1.0000
  O   O3        1.0  0.514106568058196  0.8483233528095298  0.019568724688724615  1.0000
  O   O4        1.0  0.9379420198965818  0.9593904856592417  0.09648007992655039  1.0000
  O   O5        1.0  0.9442335264757276  0.351879998575896  0.9870205803308636  1.0000
  O   O6        1.0  0.17800267203710973  0.4480071959551424  0.4523410259280354  1.0000
  O   O7        1.0  0.03670213324949145  0.06140968622639775  0.9818093538051471  1.0000
  O   O8        1.0  0.8192602823255584  0.9961303528398275  0.15307256113737822  1.0000
  O   O9        1.0  0.6324111904832534  0.2995519391261041  0.6773486474703532  1.0000
  O   O10       1.0  0.20014131415518932  0.08661942975595593  0.673024985473603  1.0000
  F   F1        1.0  0.1944123487919569  0.6607645431067795  0.10726398788392544  1.0000
  F   F2        1.0  0.7827478544786572  0.8828445207327604  0.39155201404355466  1.0000
data_image121
_chemical_formula_structural       Ca2P2H8O10F2
_chemical_formula_sum              "Ca2 P2 H8 O10 F2"
_cell_length_a       8.748547242261026
_cell_length_b       6.5292717768421165
_cell_length_c       5.804229554730758
_cell_angle_alpha    118.85637513684739
_cell_angle_beta     110.64940913561757
_cell_angle_gamma    94.26336680621436

_space_group_name_H-M_alt    "P 1"
_space_group_IT_number       1

loop_
  _space_group_symop_operation_xyz
  'x, y, z'

loop_
  _atom_site_type_symbol
  _atom_site_label
  _atom_site_symmetry_multiplicity
  _atom_site_fract_x
  _atom_site_fract_y
  _atom_site_fract_z
  _atom_site_occupancy
  Ca  Ca1       1.0  0.9590514656156301  0.5356480795890093  0.5665194503962994  1.0000
  Ca  Ca2       1.0  0.7496333757881075  0.24024390056729317  0.4636524152010679  1.0000
  P   P1        1.0  0.5821988368406892  0.6447674516239204  0.876527838408947  1.0000
  P   P2        1.0  0.019071072340011597  0.9064742885529995  0.3854834330268204  1.0000
  H   H1        1.0  0.6221691916580312  0.8138783201575279  0.27077007746265735  1.0000
  H   H2        1.0  0.6019388227869058  0.47754157218150795  0.6134467530064285  1.0000
  H   H3        1.0  0.7597338107880205  0.88989142421633  0.14912340603768826  1.0000
  H   H4        1.0  0.7172237476333976  0.7708405987359583  0.6585828764364123  1.0000
  H   H5        1.0  0.9063614178448915  0.5575998686254025  0.36612585186958313  1.0000
  H   H6        1.0  0.8772657359950244  0.516093195808935  0.8771920977160335  1.0000
  H   H7        1.0  0.23831566149601713  0.9048517264891416  0.37962103076279163  1.0000
  H   H8        1.0  0.061560323694720864  0.889899954199791  0.8032854034681804  1.0000
  O   O1        1.0  0.28681103454437107  0.6125969083223026  0.37998726265504956  1.0000
  O   O2        1.0  0.11038218511566811  0.3198187396483263  0.9590221522958018  1.0000
  O   O3        1.0  0.18371617824595887  0.7221354817447718  0.055135371832875535  1.0000
  O   O4        1.0  0.008927375893108547  0.7241443651728332  0.1973574091680348  1.0000
  O   O5        1.0  0.23561664996668696  0.9784766943193972  0.23109669191762805  1.0000
  O   O6        1.0  0.15884413398453034  0.13535769865848124  0.15893396269530058  1.0000
  O   O7        1.0  0.7048694951226935  0.5900263893418014  0.25910431635566056  1.0000
  O   O8        1.0  0.30045288137625903  0.013561934232711792  0.14615234918892384  1.0000
  O   O9        1.0  0.9294647145143244  0.9093766103032976  0.5014365967363119  1.0000
  O   O10       1.0  0.07149858749471605  0.6931608521845192  0.24290120461955667  1.0000
  F   F1        1.0  0.7042699148878455  0.3802590649574995  0.9253561317455024  1.0000
  F   F2        1.0  0.7714718272909522  0.9831097330898046  0.8990587034495547  1.0000
data_image122
_chemical_formula_structural       Ca2P2H8O10F2
_chemical_formula_sum              "Ca2 P2 H8 O10 F2"
_cell_length_a       8.748547242261026
_cell_length_b       6.5292717768421165
_cell_length_c       5.804229554730758
_cell_angle_alpha    118.85637513684739
_cell_angle_beta     110.64940913561757
_cell_angle_gamma    94.26336680621436

_space_group_name_H-M_alt    "P 1"
_space_group_IT_number       1

loop_
  _space_group_symop_operation_xyz
  'x, y, z'

loop_
  _atom_site_type_symbol
  _atom_site_label
  _atom_site_symmetry_multiplicity
  _atom_site_fract_x
  _atom_site_fract_y
  _atom_site_fract_z
  _atom_site_occupancy
  Ca  Ca1       1.0  0.07591873779892921  0.9065652210265398  0.38566907681524754  1.0000
  Ca  Ca2       1.0  0.5356237178202718  0.14986252412199974  0.39973872527480125  1.0000
  P   P1        1.0  0.12464460916817188  0.13728739297948778  0.3948716940358281  1.0000
  P   P2        1.0  0.8587207226082683  0.33102349378168583  0.7615733495913446  1.0000
  H   H1        1.0  0.5258044026559219  0.005851756781339645  0.6182720930082723  1.0000
  H   H2        1.0  0.13570127806451637  0.6086702370084822  0.27068560803309083  1.0000
  H   H3        1.0  0.3237403991515748  0.20517443120479584  0.19538235664367676  1.0000
  H   H4        1.0  0.29049060959368944  0.3618884291499853  0.15254274406470358  1.0000
  H   H5        1.0  0.6843884214758873  0.0497082844376564  0.40482673048973083  1.0000
  H   H6        1.0  0.5696005746722221  0.3446034076914657  0.08426682185381651  1.0000
  H   H7        1.0  0.654643768852111  0.9593316917307675  0.7984988614916801  1.0000
  H   H8        1.0  0.7224402043502778  0.8488544784486294  0.34449494526779745  1.0000
  O   O1        1.0  0.910131067968905  0.6755822284903843  0.5378183324355632  1.0000
  O   O2        1.0  0.3885498308800379  0.3505043076875154  0.5269998064031824  1.0000
  O   O3        1.0  0.8165533854917157  0.40659231090103276  0.2260614307670039  1.0000
  O   O4        1.0  0.15947787922050338  0.4721945710480213  0.6873259898275137  1.0000
  O   O5        1.0  0.903267664834857  0.47861570585519075  0.26373800984583795  1.0000
  O   O6        1.0  0.1928222340065986  0.8846361972391605  0.2470477030146867  1.0000
  O   O7        1.0  0.9406888037337922  0.9089750670827925  0.8012032485567033  1.0000
  O   O8        1.0  0.21928596694488078  0.31096940441057086  0.5442400630563498  1.0000
  O   O9        1.0  0.09514038090128452  0.5386801664717495  0.5371178390923887  1.0000
  O   O10       1.0  0.06786719104275107  0.6394417190458626  0.3614665875211358  1.0000
  F   F1        1.0  0.7987181106582284  0.08897509891539812  0.6041417387314141  1.0000
  F   F2        1.0  0.4891501101665199  0.13688792660832405  0.014146242174319923  1.0000
data_image123
_chemical_formula_structural       Ca2P2H8O10F2
_chemical_formula_sum              "Ca2 P2 H8 O10 F2"
_cell_length_a       8.748547242261026
_cell_length_b       6.5292717768421165
_cell_length_c       5.804229554730758
_cell_angle_alpha    118.85637513684739
_cell_angle_beta     110.64940913561757
_cell_angle_gamma    94.26336680621436

_space_group_name_H-M_alt    "P 1"
_space_group_IT_number       1

loop_
  _space_group_symop_operation_xyz
  'x, y, z'

loop_
  _atom_site_type_symbol
  _atom_site_label
  _atom_site_symmetry_multiplicity
  _atom_site_fract_x
  _atom_site_fract_y
  _atom_site_fract_z
  _atom_site_occupancy
  Ca  Ca1       1.0  0.1643361421301961  0.3625758532434702  0.9957739124074578  1.0000
  Ca  Ca2       1.0  0.43978242482990026  0.5746661145240068  0.9195845285430551  1.0000
  P   P1        1.0  0.9510495685972273  0.908814100723248  0.8936900198459625  1.0000
  P   P2        1.0  0.7519363481551409  0.7206129170954227  0.5434337807819247  1.0000
  H   H1        1.0  0.07613523612963036  0.30056209210306406  0.16306629568862263  1.0000
  H   H2        1.0  0.6765872589603532  0.5235490268096328  0.3384551703929901  1.0000
  H   H3        1.0  0.857312601438025  0.1528600975871086  0.41904246248304844  1.0000
  H   H4        1.0  0.31275396049022675  0.37752576963976026  0.2558050835505128  1.0000
  H   H5        1.0  0.752995353192091  0.16354239732027054  0.374395027756691  1.0000
  H   H6        1.0  0.4854555001948029  0.20455827284422412  0.33043369371443987  1.0000
  H   H7        1.0  0.43614725972292945  0.4468050003051758  0.3184124492108822  1.0000
  H   H8        1.0  0.26781522762030363  0.5237741717137396  0.6507391648483463  1.0000
  O   O1        1.0  0.053505111136473715  0.3655711603787495  0.5180639990139753  1.0000
  O   O2        1.0  0.18191788051080948  0.5778790374315577  0.17332730651833117  1.0000
  O   O3        1.0  0.9212761838061851  0.08531580440467224  0.8688486296159681  1.0000
  O   O4        1.0  0.2761577408236917  0.9482534225098789  0.42966855270788074  1.0000
  O   O5        1.0  0.495054648257792  0.9238250446505845  0.6312437485903502  1.0000
  O   O6        1.0  0.15848833811469376  0.750430049141869  0.34761263197287917  1.0000
  O   O7        1.0  0.9607940712594427  0.4483823049813509  0.1439336814219132  1.0000
  O   O8        1.0  0.30193707498256117  0.1728233729954809  0.5042601879686117  1.0000
  O   O9        1.0  0.8702041116193868  0.8523808389436454  0.5730859416653402  1.0000
  O   O10       1.0  0.5351481351244729  0.6834208772052079  0.9708187244832516  1.0000
  F   F1        1.0  0.5850554648786783  0.3473844691179693  0.2553432679269463  1.0000
  F   F2        1.0  0.9255431424826384  0.4108250457793474  0.6353418114595115  1.0000
data_image124
_chemical_formula_structural       Ca2P2H8O10F2
_chemical_formula_sum              "Ca2 P2 H8 O10 F2"
_cell_length_a       8.748547242261026
_cell_length_b       6.5292717768421165
_cell_length_c       5.804229554730758
_cell_angle_alpha    118.85637513684739
_cell_angle_beta     110.64940913561757
_cell_angle_gamma    94.26336680621436

_space_group_name_H-M_alt    "P 1"
_space_group_IT_number       1

loop_
  _space_group_symop_operation_xyz
  'x, y, z'

loop_
  _atom_site_type_symbol
  _atom_site_label
  _atom_site_symmetry_multiplicity
  _atom_site_fract_x
  _atom_site_fract_y
  _atom_site_fract_z
  _atom_site_occupancy
  Ca  Ca1       1.0  0.18327451962977648  0.857796797528863  0.09966749791055918  1.0000
  Ca  Ca2       1.0  0.4412923732306808  0.9667342007160187  0.36748030595481396  1.0000
  P   P1        1.0  0.1605340065434575  0.019653440394904464  0.6645131045952439  1.0000
  P   P2        1.0  0.28318989742547274  0.6429700697772205  0.3418109870981425  1.0000
  H   H1        1.0  0.3863762962282635  0.26572220865637064  0.028222816297784448  1.0000
  H   H2        1.0  0.812029272550717  0.2833216590806842  0.33946871757507324  1.0000
  H   H3        1.0  0.8884842403349467  0.7662711022421718  0.8814318384975195  1.0000
  H   H4        1.0  0.39194674603641033  0.643230288522318  0.4189871440175921  1.0000
  H   H5        1.0  0.771068911999464  0.8990121930837631  0.6330542117357254  1.0000
  H   H6        1.0  0.32663472020067275  0.18902542757132323  0.5256044445559382  1.0000
  H   H7        1.0  0.9327345431956928  0.06690488522872329  0.8113897936418653  1.0000
  H   H8        1.0  0.786728558363393  0.24296994507312775  0.5517442233976908  1.0000
  O   O1        1.0  0.4072609127033502  0.3496465346397599  0.3178572589531541  1.0000
  O   O2        1.0  0.6782377588347117  0.8540269801014801  0.04705398698570207  1.0000
  O   O3        1.0  0.3176875341887353  0.627140846918337  0.8217340660630725  1.0000
  O   O4        1.0  0.5188248231861508  0.11052195774391294  0.3385496558621526  1.0000
  O   O5        1.0  0.6205905922688544  0.41471174685284495  0.7112126827705652  1.0000
  O   O6        1.0  0.9987153790425509  0.17575813177973032  0.07900111330673099  1.0000
  O   O7        1.0  0.3635187224717811  0.02405059989541769  0.4156803609803319  1.0000
  O   O8        1.0  0.21353879815433174  0.48732346296310425  0.6093087424524128  1.0000
  O   O9        1.0  0.12186019943328574  0.9440739564597607  0.5928309038863517  1.0000
  O   O10       1.0  0.5057963554718299  0.12762154056690633  0.048766297288239  1.0000
  F   F1        1.0  0.3318321667611599  0.8100864957086742  0.7438993684481829  1.0000
  F   F2        1.0  0.150409413035959  0.1840310925617814  0.9807941038161516  1.0000
data_image125
_chemical_formula_structural       Ca2P2H8O10F2
_chemical_formula_sum              "Ca2 P2 H8 O10 F2"
_cell_length_a       8.748547242261026
_cell_length_b       6.5292717768421165
_cell_length_c       5.804229554730758
_cell_angle_alpha    118.85637513684739
_cell_angle_beta     110.64940913561757
_cell_angle_gamma    94.26336680621436

_space_group_name_H-M_alt    "P 1"
_space_group_IT_number       1

loop_
  _space_group_symop_operation_xyz
  'x, y, z'

loop_
  _atom_site_type_symbol
  _atom_site_label
  _atom_site_symmetry_multiplicity
  _atom_site_fract_x
  _atom_site_fract_y
  _atom_site_fract_z
  _atom_site_occupancy
  Ca  Ca1       1.0  0.18215807620435953  0.4976051487028599  0.8866425985470414  1.0000
  Ca  Ca2       1.0  0.2853005959186703  0.01325550302863121  0.8795202365145087  1.0000
  P   P1        1.0  0.9073502758983523  0.4228618701454252  0.2929790150374174  1.0000
  P   P2        1.0  0.7470326097682118  0.0845697185723111  0.5874268023762852  1.0000
  H   H1        1.0  0.5895085564698093  0.4408819507807493  0.046840473341944744  1.0000
  H   H2        1.0  0.9094526443514042  0.6040203953161836  0.08362730592489243  1.0000
  H   H3        1.0  0.9391206800501095  0.2924063727259636  0.6492976248264313  1.0000
  H   H4        1.0  0.10213971603661776  0.7293792511336505  0.8791691991500556  1.0000
  H   H5        1.0  0.028406798839569092  0.7648714557290077  0.40499652177095413  1.0000
  H   H6        1.0  0.6763501276727766  0.5314997188615962  0.6517657628282905  1.0000
  H   H7        1.0  0.42063080056686886  0.9891574620269239  0.8743828544393182  1.0000
  H   H8        1.0  0.7040884995367378  0.592238930054009  0.17279996623983607  1.0000
  O   O1        1.0  0.7398613253608346  0.5570418023999082  0.9418083732016385  1.0000
  O   O2        1.0  0.1549352025576809  0.4314902338956017  0.2888356479816139  1.0000
  O   O3        1.0  0.07969438210420776  0.37350745816365816  0.5439778939180542  1.0000
  O   O4        1.0  0.9873281596374  0.21979636186733842  0.1911166049540043  1.0000
  O   O5        1.0  0.05509051028639078  0.1451892522163689  0.8011803606059402  1.0000
  O   O6        1.0  0.04813851116341539  0.9396875428501517  0.22843425103928894  1.0000
  O   O7        1.0  0.004004533577244729  0.6665630517527461  0.658747466513887  1.0000
  O   O8        1.0  0.2497474413830787  0.07173498440533876  0.02281280281022191  1.0000
  O   O9        1.0  0.8069228941167239  0.33851250004954636  0.2125882429536432  1.0000
  O   O10       1.0  0.19503943218296627  0.8167725959792733  0.8790738298557699  1.0000
  F   F1        1.0  0.36208035610616207  0.6766461059451103  0.24059295002371073  1.0000
  F   F2        1.0  0.9833653713576496  0.09420723654329777  0.8070255685597658  1.0000
data_image126
_chemical_formula_structural       Ca2P2H8O10F2
_chemical_formula_sum              "Ca2 P2 H8 O10 F2"
_cell_length_a       8.748547242261026
_cell_length_b       6.5292717768421165
_cell_length_c       5.804229554730758
_cell_angle_alpha    118.85637513684739
_cell_angle_beta     110.64940913561757
_cell_angle_gamma    94.26336680621436

_space_group_name_H-M_alt    "P 1"
_space_group_IT_number       1

loop_
  _space_group_symop_operation_xyz
  'x, y, z'

loop_
  _atom_site_type_symbol
  _atom_site_label
  _atom_site_symmetry_multiplicity
  _atom_site_fract_x
  _atom_site_fract_y
  _atom_site_fract_z
  _atom_site_occupancy
  Ca  Ca1       1.0  0.9741763682104647  0.43044890463352203  0.731626370921731  1.0000
  Ca  Ca2       1.0  0.6834446617867798  0.03760247118771076  0.8834418756887317  1.0000
  P   P1        1.0  0.4735489641316235  0.5670525874011219  0.9835919290781021  1.0000
  P   P2        1.0  0.8865228872746229  0.2809737565694377  0.8957242360338569  1.0000
  H   H1        1.0  0.9041281449608505  0.5807536896318197  0.560720576071617  1.0000
  H   H2        1.0  0.8772728788317181  0.014667128678411245  0.5002115368843079  1.0000
  H   H3        1.0  0.23536102610523812  0.3599565988406539  0.5528211742639542  1.0000
  H   H4        1.0  0.32068784162402153  0.27965880697593093  0.7071342878043652  1.0000
  H   H5        1.0  0.9000224880874157  0.26460761576890945  0.025642596185207367  1.0000
  H   H6        1.0  0.41749017289839685  0.10311464448750485  0.874288477934897  1.0000
  H   H7        1.0  0.15897825465071946  0.9266854990273714  0.9378654360771179  1.0000
  H   H8        1.0  0.14245382160879672  0.2238264847546816  0.6370224558922928  1.0000
  O   O1        1.0  0.021061982377432287  0.7681572538858745  0.8053313044365495  1.0000
  O   O2        1.0  0.9294356550817611  0.9738233932293952  0.7531562524964102  1.0000
  O   O3        1.0  0.7197725429723505  0.9728581915551331  0.3654184800980147  1.0000
  O   O4        1.0  0.030051943031139672  0.569460972212255  0.2564835548400879  1.0000
  O   O5        1.0  0.252698072232306  0.44566795276477933  0.7839603689499199  1.0000
  O   O6        1.0  0.45623836159938946  0.6332828416489065  0.17392258520703763  1.0000
  O   O7        1.0  0.8306065782671794  0.2725063737016171  0.3674178177025169  1.0000
  O   O8        1.0  0.005301263881847262  0.1616746906656772  0.32917505130171776  1.0000
  O   O9        1.0  0.03704209078568965  0.6539973211474717  0.07169615000020713  1.0000
  O   O10       1.0  0.43302546425547916  0.2492551701143384  0.03380444087088108  1.0000
  F   F1        1.0  0.6165800206363201  0.3208398064598441  0.15821272926405072  1.0000
  F   F2        1.0  0.6387552991509438  0.09148144908249378  0.5700084723066539  1.0000
data_image127
_chemical_formula_structural       Ca2P2H8O10F2
_chemical_formula_sum              "Ca2 P2 H8 O10 F2"
_cell_length_a       8.748547242261026
_cell_length_b       6.5292717768421165
_cell_length_c       5.804229554730758
_cell_angle_alpha    118.85637513684739
_cell_angle_beta     110.64940913561757
_cell_angle_gamma    94.26336680621436

_space_group_name_H-M_alt    "P 1"
_space_group_IT_number       1

loop_
  _space_group_symop_operation_xyz
  'x, y, z'

loop_
  _atom_site_type_symbol
  _atom_site_label
  _atom_site_symmetry_multiplicity
  _atom_site_fract_x
  _atom_site_fract_y
  _atom_site_fract_z
  _atom_site_occupancy
  Ca  Ca1       1.0  0.983019077219069  0.5052240211516619  0.609382402151823  1.0000
  Ca  Ca2       1.0  0.5145838712342083  0.48861117102205753  0.47747150901705027  1.0000
  P   P1        1.0  0.9404224974568933  0.9564391793683171  0.17954441718757153  1.0000
  P   P2        1.0  0.5502158412709832  0.33418252947740257  0.7811781321652234  1.0000
  H   H1        1.0  0.9640215654508211  0.18714209087193012  0.5849125731328968  1.0000
  H   H2        1.0  0.35877962727681734  0.980870476923883  0.6835932256653905  1.0000
  H   H3        1.0  0.14795962077914737  0.377298541367054  0.9917631167918444  1.0000
  H   H4        1.0  0.7776401666924357  0.49461863888427615  0.23596162116155028  1.0000
  H   H5        1.0  0.22330395132303238  0.6911939904093742  0.00721190869808197  1.0000
  H   H6        1.0  0.16155765554867685  0.43576844367089507  0.18167368695139885  1.0000
  H   H7        1.0  0.7725134699721821  0.8460322069004178  0.38592450972646475  1.0000
  H   H8        1.0  0.20789417205378413  0.09417091170325875  0.7203948383685201  1.0000
  O   O1        1.0  0.7802336836466566  0.9293457607564051  0.6618828899227083  1.0000
  O   O2        1.0  0.9104451925450121  0.7935411621292587  0.16977030609268695  1.0000
  O   O3        1.0  0.33244381977419835  0.5354655328264926  0.1338460115075577  1.0000
  O   O4        1.0  0.16964902539621107  0.570945052895695  0.6051414534449577  1.0000
  O   O5        1.0  0.3365859021432698  0.5261079198680818  0.19411898218095303  1.0000
  O   O6        1.0  0.8138603187690023  0.9180929868016392  0.5104700330412015  1.0000
  O   O7        1.0  0.04170313331997022  0.6124736636411399  0.012912061996757984  1.0000
  O   O8        1.0  0.5524018614087254  0.4108014421071857  0.6448370073921978  1.0000
  O   O9        1.0  0.42411122628254816  0.2673443709500134  0.9611523812636733  1.0000
  O   O10       1.0  0.41986942835319496  0.033305731834843755  0.5689343893900514  1.0000
  F   F1        1.0  0.8404587944969535  0.45289713609963655  0.6233800267800689  1.0000
  F   F2        1.0  0.8962574223987758  0.4108600839972496  0.740571033442393  1.0000
data_image128
_chemical_formula_structural       Ca2P2H8O10F2
_chemical_formula_sum              "Ca2 P2 H8 O10 F2"
_cell_length_a       8.748547242261026
_cell_length_b       6.5292717768421165
_cell_length_c       5.804229554730758
_cell_angle_alpha    118.85637513684739
_cell_angle_beta     110.64940913561757
_cell_angle_gamma    94.26336680621436

_space_group_name_H-M_alt    "P 1"
_space_group_IT_number       1

loop_
  _space_group_symop_operation_xyz
  'x, y, z'

loop_
  _atom_site_type_symbol
  _atom_site_label
  _atom_site_symmetry_multiplicity
  _atom_site_fract_x
  _atom_site_fract_y
  _atom_site_fract_z
  _atom_site_occupancy
  Ca  Ca1       1.0  0.48502203123643994  0.5084758047014475  0.025786682032048702  1.0000
  Ca  Ca2       1.0  0.9194039057474583  0.6228736769407988  0.16783510334789753  1.0000
  P   P1        1.0  0.5034409519284964  0.9812455456703901  0.3872213736176491  1.0000
  P   P2        1.0  0.6819195970892906  0.8436686366330832  0.47466278076171875  1.0000
  H   H1        1.0  0.306894174660556  0.8194624483585358  0.03759294563496951  1.0000
  H   H2        1.0  0.03178217991080601  0.2432876294478774  0.6351634357124567  1.0000
  H   H3        1.0  0.26402293573482893  0.34529331512749195  0.6762075331062078  1.0000
  H   H4        1.0  0.3998605636879802  0.44611885608173907  0.1049781262408942  1.0000
  H   H5        1.0  0.3600499574095011  0.8915669620037079  0.8143846243619919  1.0000
  H   H6        1.0  0.30073375906795263  0.17645476183815845  0.5871639139950275  1.0000
  H   H7        1.0  0.49414415372302756  0.8394526187330484  0.38107572216540575  1.0000
  H   H8        1.0  0.06347710080444813  0.12047503842040896  0.14957081514876336  1.0000
  O   O1        1.0  0.7594524044543505  0.2728664980677422  0.5837833429686725  1.0000
  O   O2        1.0  0.353477622003993  0.5512259291863302  0.33018095965962857  1.0000
  O   O3        1.0  0.263683192039025  0.880074520726339  0.10744520422304049  1.0000
  O   O4        1.0  0.5631529249949381  0.3738034665584564  0.27908488688990474  1.0000
  O   O5        1.0  0.3791816122829914  0.16624645050615072  0.833125262754038  1.0000
  O   O6        1.0  0.7759486269205809  0.7772080489667132  0.40086464874912053  1.0000
  O   O7        1.0  0.2605801041354425  0.049484217539429665  0.025433677481487393  1.0000
  O   O8        1.0  0.04395517543889582  0.6395580735988915  0.4000083995051682  1.0000
  O   O9        1.0  0.9512304348754697  0.041774722281843424  0.30211396771483123  1.0000
  O   O10       1.0  0.792811870940568  0.8709093313664198  0.05166196543723345  1.0000
  F   F1        1.0  0.08390863239765167  0.6877684062346816  0.04515564348548651  1.0000
  F   F2        1.0  0.23657621629536152  0.6394770927727222  0.17125217150896788  1.0000
data_image129
_chemical_formula_structural       Ca2P2H8O10F2
_chemical_formula_sum              "Ca2 P2 H8 O10 F2"
_cell_length_a       8.748547242261026
_cell_length_b       6.5292717768421165
_cell_length_c       5.804229554730758
_cell_angle_alpha    118.85637513684739
_cell_angle_beta     110.64940913561757
_cell_angle_gamma    94.26336680621436

_space_group_name_H-M_alt    "P 1"
_space_group_IT_number       1

loop_
  _space_group_symop_operation_xyz
  'x, y, z'

loop_
  _atom_site_type_symbol
  _atom_site_label
  _atom_site_symmetry_multiplicity
  _atom_site_fract_x
  _atom_site_fract_y
  _atom_site_fract_z
  _atom_site_occupancy
  Ca  Ca1       1.0  0.8248333605006337  0.021429860964417458  0.1019342839717865  1.0000
  Ca  Ca2       1.0  0.023681045975536108  0.8817746806889772  0.9330028966069221  1.0000
  P   P1        1.0  0.34309197729453444  0.5116632103454322  0.5606595445424318  1.0000
  P   P2        1.0  0.5487963855266571  0.2494914352428168  0.1857951362617314  1.0000
  H   H1        1.0  0.9941184261115268  0.486141636967659  0.8006075718876673  1.0000
  H   H2        1.0  0.051031762835918926  0.8144230307079852  0.6507868450134993  1.0000
  H   H3        1.0  0.9018468568683602  0.8493579672649503  0.040121935307979584  1.0000
  H   H4        1.0  0.29518504813313484  0.2802761625498533  0.046400157269090414  1.0000
  H   H5        1.0  0.14150840789079666  0.502255380153656  0.32352490723133087  1.0000
  H   H6        1.0  0.33147828094661236  0.8328470806241057  0.40787452831864357  1.0000
  H   H7        1.0  0.7528862805920653  0.8250328027643263  0.7511449158191681  1.0000
  H   H8        1.0  0.17424696683883667  0.09883639356121421  0.12046555895358324  1.0000
  O   O1        1.0  0.38189485878683627  0.6081247203837847  0.9126440493855625  1.0000
  O   O2        1.0  0.16226303632720374  0.73767728866369  0.2938908006763086  1.0000
  O   O3        1.0  0.35177527431369526  0.25195144129975233  0.5261644464335404  1.0000
  O   O4        1.0  0.8579152579477523  0.28781415428966284  0.9186584949493408  1.0000
  O   O5        1.0  0.6266336347907782  0.40941118774935603  0.14721713168546557  1.0000
  O   O6        1.0  0.6345699473458808  0.5777800442883745  0.6904003362869844  1.0000
  O   O7        1.0  0.25135806220350787  0.17890919162891805  0.25033037224784493  1.0000
  O   O8        1.0  0.36743549164384604  0.2459391658194363  0.09510231111198664  1.0000
  O   O9        1.0  0.9417925028828904  0.05440671229735017  0.046997493831440806  1.0000
  O   O10       1.0  0.5331822452208144  0.07973548560403287  0.8908638157881796  1.0000
  F   F1        1.0  0.32745353039354086  0.6820456134155393  0.7141173016279936  1.0000
  F   F2        1.0  0.258145640604198  0.7422045227140188  0.585950693115592  1.0000
data_image130
_chemical_formula_structural       Ca2P2H8O10F2
_chemical_formula_sum              "Ca2 P2 H8 O10 F2"
_cell_length_a       8.748547242261026
_cell_length_b       6.5292717768421165
_cell_length_c       5.804229554730758
_cell_angle_alpha    118.85637513684739
_cell_angle_beta     110.64940913561757
_cell_angle_gamma    94.26336680621436

_space_group_name_H-M_alt    "P 1"
_space_group_IT_number       1

loop_
  _space_group_symop_operation_xyz
  'x, y, z'

loop_
  _atom_site_type_symbol
  _atom_site_label
  _atom_site_symmetry_multiplicity
  _atom_site_fract_x
  _atom_site_fract_y
  _atom_site_fract_z
  _atom_site_occupancy
  Ca  Ca1       1.0  0.9773814473301172  0.6118781734257936  0.046319397166371346  1.0000
  Ca  Ca2       1.0  0.42351322644390166  0.6521585173904896  0.9523615725338459  1.0000
  P   P1        1.0  0.13869873713701963  0.6454692990519106  0.5429716892540455  1.0000
  P   P2        1.0  0.5128244161605835  0.9691270837793127  0.8887081723660231  1.0000
  H   H1        1.0  0.24851102207321674  0.7817901130765676  0.7772862359997816  1.0000
  H   H2        1.0  0.671526104590157  0.7694575628265738  0.6740715149790049  1.0000
  H   H3        1.0  0.45279619717621244  0.16731340531259775  0.9519422315061092  1.0000
  H   H4        1.0  0.35809788201004267  0.8808284383267164  0.9934213117230684  1.0000
  H   H5        1.0  0.18864716589450836  0.8822556883096695  0.5168044418096542  1.0000
  H   H6        1.0  0.5550475118216127  0.17947521332280303  0.35947119537740946  1.0000
  H   H7        1.0  0.08545754273654893  0.4448651894927025  0.6864936025813222  1.0000
  H   H8        1.0  0.5329221035353839  0.5586643670685589  0.3293438304681331  1.0000
  O   O1        1.0  0.3115567188942805  0.48736888852727134  0.2602511572185904  1.0000
  O   O2        1.0  0.8441442928160541  0.46312703333387617  0.9896701896213926  1.0000
  O   O3        1.0  0.5921132458679494  0.579694768297486  0.41253418888663873  1.0000
  O   O4        1.0  0.28149995976127684  0.6717137773521245  0.6660250118002295  1.0000
  O   O5        1.0  0.09670380549505353  0.6496144668199122  0.6771743756253272  1.0000
  O   O6        1.0  0.8223021892772522  0.28077006328385323  0.09161795291583985  1.0000
  O   O7        1.0  0.011911876033991575  0.9857907593250275  0.17610192159190774  1.0000
  O   O8        1.0  0.7536377516807988  0.9382938432972878  0.20067215943709016  1.0000
  O   O9        1.0  0.15594480955041945  0.4072421509772539  0.9234890302177519  1.0000
  O   O10       1.0  0.7899250220943941  0.19869363773614168  0.8758570910431445  1.0000
  F   F1        1.0  0.8209369461983442  0.9941404024139047  0.04882803186774254  1.0000
  F   F2        1.0  0.5924405169207603  0.35336896777153015  0.3911536019295454  1.0000
data_image131
_chemical_formula_structural       Ca2P2H8O10F2
_chemical_formula_sum              "Ca2 P2 H8 O10 F2"
_cell_length_a       8.748547242261026
_cell_length_b       6.5292717768421165
_cell_length_c       5.804229554730758
_cell_angle_alpha    118.85637513684739
_cell_angle_beta     110.64940913561757
_cell_angle_gamma    94.26336680621436

_space_group_name_H-M_alt    "P 1"
_space_group_IT_number       1

loop_
  _space_group_symop_operation_xyz
  'x, y, z'

loop_
  _atom_site_type_symbol
  _atom_site_label
  _atom_site_symmetry_multiplicity
  _atom_site_fract_x
  _atom_site_fract_y
  _atom_site_fract_z
  _atom_site_occupancy
  Ca  Ca1       1.0  0.8246348286047578  0.23002567701041698  0.8766600042581558  1.0000
  Ca  Ca2       1.0  0.08751762774772942  0.9380737952888012  0.4319968754425645  1.0000
  P   P1        1.0  0.7912980667315423  0.8313147702720016  0.35188183933496475  1.0000
  P   P2        1.0  0.0007291780784726143  0.8262608497170731  0.5670031411573291  1.0000
  H   H1        1.0  0.7736896172864363  0.9192442083731294  0.8217070136888651  1.0000
  H   H2        1.0  0.7896741731092334  0.9303950038738549  0.40664387308061123  1.0000
  H   H3        1.0  0.7913431613997091  0.4995485655963421  0.5241322796791792  1.0000
  H   H4        1.0  0.4430325571447611  0.7937067551538348  0.9545820297207683  1.0000
  H   H5        1.0  0.4107181876897812  0.5117117613554001  0.280687153339386  1.0000
  H   H6        1.0  0.9541294435039163  0.7072218326647999  0.7258942807093263  1.0000
  H   H7        1.0  0.6171464161016047  0.8331076661124825  0.35035414434969425  1.0000
  H   H8        1.0  0.7354662406723946  0.6153343571349978  0.9145566176739521  1.0000
  O   O1        1.0  0.48065033520106226  0.27639005130913574  0.45835300139151514  1.0000
  O   O2        1.0  0.9641436795936897  0.5995574099797523  0.05858494166750461  1.0000
  O   O3        1.0  0.20522882990917424  0.6455103889238671  0.8875959002762102  1.0000
  O   O4        1.0  0.18379757486400194  0.8546626358292997  0.810994085855782  1.0000
  O   O5        1.0  0.408357878215611  0.7730067884549499  0.46818435238674283  1.0000
  O   O6        1.0  0.7793437234358862  0.8584262257209048  0.06602294102776796  1.0000
  O   O7        1.0  0.6102157371351495  0.4136276813223958  0.39247135492041707  1.0000
  O   O8        1.0  0.8507278502220288  0.1404832962434739  0.08529173815622926  1.0000
  O   O9        1.0  0.21922801999608055  0.9249775568023324  0.781078715575859  1.0000
  O   O10       1.0  0.8471509138180409  0.007970881881192327  0.5922550428658724  1.0000
  F   F1        1.0  0.3820951199159026  0.5651329513639212  0.7262822473421693  1.0000
  F   F2        1.0  0.02143504354171455  0.3180117327719927  0.11953731067478657  1.0000
data_image132
_chemical_formula_structural       Ca2P2H8O10F2
_chemical_formula_sum              "Ca2 P2 H8 O10 F2"
_cell_length_a       8.748547242261026
_cell_length_b       6.5292717768421165
_cell_length_c       5.804229554730758
_cell_angle_alpha    118.85637513684739
_cell_angle_beta     110.64940913561757
_cell_angle_gamma    94.26336680621436

_space_group_name_H-M_alt    "P 1"
_space_group_IT_number       1

loop_
  _space_group_symop_operation_xyz
  'x, y, z'

loop_
  _atom_site_type_symbol
  _atom_site_label
  _atom_site_symmetry_multiplicity
  _atom_site_fract_x
  _atom_site_fract_y
  _atom_site_fract_z
  _atom_site_occupancy
  Ca  Ca1       1.0  0.579855096526444  0.8713919948786497  0.21521136444061995  1.0000
  Ca  Ca2       1.0  0.8326737892348319  0.24166831374168396  0.11423236597329378  1.0000
  P   P1        1.0  0.569766913075  0.6580192144028842  0.7012169156223536  1.0000
  P   P2        1.0  0.24758358299732208  0.46222934941761196  0.7581894369795918  1.0000
  H   H1        1.0  0.18475481611676514  0.7228635186329484  0.8041141766589135  1.0000
  H   H2        1.0  0.22473965998506173  0.864682394079864  0.023409228771924973  1.0000
  H   H3        1.0  0.7025775111396797  0.4855555221438408  0.23051675222814083  1.0000
  H   H4        1.0  0.8811112344264984  0.7144792811013758  0.41161031229421496  1.0000
  H   H5        1.0  0.4202400669455528  0.16011977195739746  0.8321098536252975  1.0000
  H   H6        1.0  0.8346132035367191  0.4296464186772937  0.5429762415587902  1.0000
  H   H7        1.0  0.22064242186024785  0.4033556063659489  0.10682646743953228  1.0000
  H   H8        1.0  0.7945884552318603  0.5779781369492412  0.11243227502563968  1.0000
  O   O1        1.0  0.9271273143822327  0.8596054025547346  0.2718570060096681  1.0000
  O   O2        1.0  0.43152369430754334  0.5572335246979492  0.6484238005941734  1.0000
  O   O3        1.0  0.6962262799424934  0.34628207721107174  0.34675310197053477  1.0000
  O   O4        1.0  0.8878935760585591  0.20743574062362313  0.8542513637803495  1.0000
  O   O5        1.0  0.2508826544508338  0.9202689514495432  0.4416697376873344  1.0000
  O   O6        1.0  0.9995898154156748  0.16116612742189318  0.001205101958476007  1.0000
  O   O7        1.0  0.4122958348598331  0.2648763442412019  0.7028760875109583  1.0000
  O   O8        1.0  0.0856910957954824  0.606942851562053  0.3367430348880589  1.0000
  O   O9        1.0  0.706056660565082  0.6310684457421303  0.7313330508768559  1.0000
  O   O10       1.0  0.7411687663188786  0.3276987918652594  0.83826410677284  1.0000
  F   F1        1.0  0.6559488056227565  0.31310195848345757  0.5555510413832963  1.0000
  F   F2        1.0  0.01638940372504294  0.8714263774454594  0.5707202339544892  1.0000
data_image133
_chemical_formula_structural       Ca2P2H8O10F2
_chemical_formula_sum              "Ca2 P2 H8 O10 F2"
_cell_length_a       8.748547242261026
_cell_length_b       6.5292717768421165
_cell_length_c       5.804229554730758
_cell_angle_alpha    118.85637513684739
_cell_angle_beta     110.64940913561757
_cell_angle_gamma    94.26336680621436

_space_group_name_H-M_alt    "P 1"
_space_group_IT_number       1

loop_
  _space_group_symop_operation_xyz
  'x, y, z'

loop_
  _atom_site_type_symbol
  _atom_site_label
  _atom_site_symmetry_multiplicity
  _atom_site_fract_x
  _atom_site_fract_y
  _atom_site_fract_z
  _atom_site_occupancy
  Ca  Ca1       1.0  0.9315866897813976  0.2864799629896879  0.8020377093926072  1.0000
  Ca  Ca2       1.0  0.22413856559433043  0.8443203326314688  0.18313655350357294  1.0000
  P   P1        1.0  0.8027305433060974  0.04160810890607536  0.8041597381234169  1.0000
  P   P2        1.0  0.5323433903977275  0.8813198154093698  0.404409607173875  1.0000
  H   H1        1.0  0.17269508831668645  0.9954520165920258  0.44347682007355615  1.0000
  H   H2        1.0  0.7027538115507923  0.31124984566122293  0.6983806136995554  1.0000
  H   H3        1.0  0.7531466466025449  0.011813076213002205  0.5363858751952648  1.0000
  H   H4        1.0  0.8321396829560399  0.46809384203515947  0.059280964778736234  1.0000
  H   H5        1.0  0.9374907836318016  0.13975846022367477  0.47258761525154114  1.0000
  H   H6        1.0  0.25962496758438647  0.3678339594625868  0.1043111952021718  1.0000
  H   H7        1.0  0.5097187312203459  0.6209968375042081  0.8051373055204749  1.0000
  H   H8        1.0  0.13278570189140737  0.3981164153665304  0.2615103939897381  1.0000
  O   O1        1.0  0.5534238956170157  0.15417104044172447  0.3755331593565643  1.0000
  O   O2        1.0  0.010902008041739464  0.46843527763849124  0.6010408700676635  1.0000
  O   O3        1.0  0.3950953696112265  0.9222030573582742  0.6079454388236627  1.0000
  O   O4        1.0  0.04287449340336025  0.3934956914745271  0.12014886923134327  1.0000
  O   O5        1.0  0.223445697221905  0.13221543841063976  0.11375747178681195  1.0000
  O   O6        1.0  0.11847808875609189  0.6761186379007995  0.22294456139206886  1.0000
  O   O7        1.0  0.2442176891490817  0.8653074209578335  0.497390411561355  1.0000
  O   O8        1.0  0.1503413557074964  0.2908161112572998  0.724583450704813  1.0000
  O   O9        1.0  0.3236657697125338  0.180061639752239  0.5966748055070639  1.0000
  O   O10       1.0  0.9169674456861685  0.5822711626533419  0.8804050977341831  1.0000
  F   F1        1.0  0.863311386667192  0.9642352666705847  0.04609921341761947  1.0000
  F   F2        1.0  0.826258052373305  0.008312289603054523  0.7319214725866914  1.0000
data_image134
_chemical_formula_structural       Ca2P2H8O10F2
_chemical_formula_sum              "Ca2 P2 H8 O10 F2"
_cell_length_a       8.748547242261026
_cell_length_b       6.5292717768421165
_cell_length_c       5.804229554730758
_cell_angle_alpha    118.85637513684739
_cell_angle_beta     110.64940913561757
_cell_angle_gamma    94.26336680621436

_space_group_name_H-M_alt    "P 1"
_space_group_IT_number       1

loop_
  _space_group_symop_operation_xyz
  'x, y, z'

loop_
  _atom_site_type_symbol
  _atom_site_label
  _atom_site_symmetry_multiplicity
  _atom_site_fract_x
  _atom_site_fract_y
  _atom_site_fract_z
  _atom_site_occupancy
  Ca  Ca1       1.0  0.10157273011282086  0.9205208420753479  0.14814629033207893  1.0000
  Ca  Ca2       1.0  0.9663719227537513  0.9180858265608549  0.05960994493216276  1.0000
  P   P1        1.0  0.14461915916763246  0.4020704277791083  0.1868910025805235  1.0000
  P   P2        1.0  0.010242614895105362  0.7886257220525295  0.564005539054051  1.0000
  H   H1        1.0  0.5151764406764414  0.023093143478035927  0.33144652016926557  1.0000
  H   H2        1.0  0.20308269769884646  0.6716355616226792  0.7043994758278131  1.0000
  H   H3        1.0  0.4478295313019771  0.016227880492806435  0.7594769597053528  1.0000
  H   H4        1.0  0.5576619822531939  0.0758816497400403  0.28604183765128255  1.0000
  H   H5        1.0  0.8889884352684021  0.4287719205021858  0.536345861852169  1.0000
  H   H6        1.0  0.2226438382640481  0.7299989607854513  0.07768543902784586  1.0000
  H   H7        1.0  0.7708289704169147  0.5791779924184084  0.25302877090871334  1.0000
  H   H8        1.0  0.892549786483869  0.5242811739444733  0.07800898334244266  1.0000
  O   O1        1.0  0.6046016837935895  0.9797899105324177  0.37060067360289395  1.0000
  O   O2        1.0  0.9241551801096648  0.08612576370069291  0.37412824301281944  1.0000
  O   O3        1.0  0.20887449471774744  0.4475242489570519  0.5443027970613912  1.0000
  O   O4        1.0  0.6009923495585099  0.7218778533861041  0.4010455752722919  1.0000
  O   O5        1.0  0.8160228142514825  0.9012020267546177  0.25672918860800564  1.0000
  O   O6        1.0  0.7699623818625696  0.5375165670411661  0.9828877398977056  1.0000
  O   O7        1.0  0.9578728645574301  0.9439296312630177  0.44500940339639783  1.0000
  O   O8        1.0  0.4524247287772596  0.9280555855948478  0.1845060084015131  1.0000
  O   O9        1.0  0.29563941655214876  0.8931597894988954  0.5966200325638056  1.0000
  O   O10       1.0  0.49497163361957064  0.9534532593097538  0.0223446493037045  1.0000
  F   F1        1.0  0.5490426616743207  0.37772274762392044  0.30108987260609865  1.0000
  F   F2        1.0  0.24285175651311874  0.6654759170487523  0.12232731282711029  1.0000
data_image135
_chemical_formula_structural       Ca2P2H8O10F2
_chemical_formula_sum              "Ca2 P2 H8 O10 F2"
_cell_length_a       8.748547242261026
_cell_length_b       6.5292717768421165
_cell_length_c       5.804229554730758
_cell_angle_alpha    118.85637513684739
_cell_angle_beta     110.64940913561757
_cell_angle_gamma    94.26336680621436

_space_group_name_H-M_alt    "P 1"
_space_group_IT_number       1

loop_
  _space_group_symop_operation_xyz
  'x, y, z'

loop_
  _atom_site_type_symbol
  _atom_site_label
  _atom_site_symmetry_multiplicity
  _atom_site_fract_x
  _atom_site_fract_y
  _atom_site_fract_z
  _atom_site_occupancy
  Ca  Ca1       1.0  0.010154697112739086  0.5946884602308273  0.2360003050416708  1.0000
  Ca  Ca2       1.0  0.38339137216098607  0.8305668290704489  0.9477071017026901  1.0000
  P   P1        1.0  0.9668949688784778  0.2925463367719203  0.3550471905618906  1.0000
  P   P2        1.0  0.8795751081779599  0.4648249871097505  0.10633673262782395  1.0000
  H   H1        1.0  0.7274936057801824  0.16690822783857584  0.6475902813253924  1.0000
  H   H2        1.0  0.9220388613175601  0.10245826188474894  0.3429874684661627  1.0000
  H   H3        1.0  0.9215733343153261  0.715738576836884  0.8268257230520248  1.0000
  H   H4        1.0  0.8552880026400089  0.543364685960114  0.7216031712014228  1.0000
  H   H5        1.0  0.2205346990376711  0.3674617037177086  0.5328306332230568  1.0000
  H   H6        1.0  0.19533867295831442  0.9740973946463782  0.5759982466697693  1.0000
  H   H7        1.0  0.5459781946265139  0.11450205184519291  0.16642964538186789  1.0000
  H   H8        1.0  0.7550048574339598  0.8722483818419278  0.4507888712105341  1.0000
  O   O1        1.0  0.45587225211784244  0.011080704265623353  0.9942610003054142  1.0000
  O   O2        1.0  0.10803212302562315  0.5391435718775028  0.8263791902572848  1.0000
  O   O3        1.0  0.4117054394300794  0.289703330687189  0.3394510163925588  1.0000
  O   O4        1.0  0.8703665011853445  0.45696801226586103  0.6198466545902193  1.0000
  O   O5        1.0  0.18183372495695949  0.2367703183554113  0.5315319681540132  1.0000
  O   O6        1.0  0.4169408344605472  0.4710692606167868  0.9081241709645838  1.0000
  O   O7        1.0  0.5286287206690758  0.2000299037899822  0.9928024264518172  1.0000
  O   O8        1.0  0.8510405636625364  0.8975937995128334  0.413498898036778  1.0000
  O   O9        1.0  0.16861651482759044  0.8595027299597859  0.8508352299686521  1.0000
  O   O10       1.0  0.8468587246970856  0.29409367963671684  0.4797500320710242  1.0000
  F   F1        1.0  0.17701020184904337  0.2471549678593874  0.4214285919442773  1.0000
  F   F2        1.0  0.4128892116714269  0.34943400230258703  0.1601579636335373  1.0000
data_image136
_chemical_formula_structural       Ca2P2H8O10F2
_chemical_formula_sum              "Ca2 P2 H8 O10 F2"
_cell_length_a       8.748547242261026
_cell_length_b       6.5292717768421165
_cell_length_c       5.804229554730758
_cell_angle_alpha    118.85637513684739
_cell_angle_beta     110.64940913561757
_cell_angle_gamma    94.26336680621436

_space_group_name_H-M_alt    "P 1"
_space_group_IT_number       1

loop_
  _space_group_symop_operation_xyz
  'x, y, z'

loop_
  _atom_site_type_symbol
  _atom_site_label
  _atom_site_symmetry_multiplicity
  _atom_site_fract_x
  _atom_site_fract_y
  _atom_site_fract_z
  _atom_site_occupancy
  Ca  Ca1       1.0  0.4464324191212654  0.19007993303239346  0.3775452058762312  1.0000
  Ca  Ca2       1.0  0.9907597263809294  0.23696045018732548  0.5082675507292151  1.0000
  P   P1        1.0  0.3641164090950042  0.23361670621670783  0.48769467137753963  1.0000
  P   P2        1.0  0.20369981229305267  0.25586211041081697  0.4445053883828223  1.0000
  H   H1        1.0  0.782937227137154  0.8932565273717046  0.004864899558015168  1.0000
  H   H2        1.0  0.3738988328841515  0.19361710455268621  0.006442952901124954  1.0000
  H   H3        1.0  0.9322230482357554  0.3525493685156107  0.9110677130520344  1.0000
  H   H4        1.0  0.08291797619313002  0.6721779508516192  0.5691188299097121  1.0000
  H   H5        1.0  0.5958582125604153  0.12826644629240036  0.45776668190956116  1.0000
  H   H6        1.0  0.7525820704177022  0.11561977557721548  0.5133918551728129  1.0000
  H   H7        1.0  0.7140829542186111  0.014752256218343973  0.18613963015377522  1.0000
  H   H8        1.0  0.23128836532123387  0.5870631146244705  0.47991870198166  1.0000
  O   O1        1.0  0.5270623549586162  0.8738511086266953  0.7340284353122115  1.0000
  O   O2        1.0  0.24734983724192716  0.4499560245239991  0.5959985954686999  1.0000
  O   O3        1.0  0.21704179030348314  0.7928964560851455  0.559733411995694  1.0000
  O   O4        1.0  0.16990091651678085  0.050146741326898336  0.022670085541903973  1.0000
  O   O5        1.0  0.1322203492745757  0.15304410504177213  0.3834162182174623  1.0000
  O   O6        1.0  0.20701800621463917  0.5029191679786891  0.9250631047179922  1.0000
  O   O7        1.0  0.084554266941268  0.9569417552556843  0.5204015785129741  1.0000
  O   O8        1.0  0.6033805721672252  0.685627669794485  0.9274272015318274  1.0000
  O   O9        1.0  0.0974317216896452  0.7077547730877995  0.9754625882487744  1.0000
  O   O10       1.0  0.07979588007583516  0.4807019317522645  0.5122963506728411  1.0000
  F   F1        1.0  0.5298328064382076  0.3402669867500663  0.98632821906358  1.0000
  F   F2        1.0  0.4272508267313242  0.7310801465064287  0.8729878282174468  1.0000
data_image137
_chemical_formula_structural       Ca2P2H8O10F2
_chemical_formula_sum              "Ca2 P2 H8 O10 F2"
_cell_length_a       8.748547242261026
_cell_length_b       6.5292717768421165
_cell_length_c       5.804229554730758
_cell_angle_alpha    118.85637513684739
_cell_angle_beta     110.64940913561757
_cell_angle_gamma    94.26336680621436

_space_group_name_H-M_alt    "P 1"
_space_group_IT_number       1

loop_
  _space_group_symop_operation_xyz
  'x, y, z'

loop_
  _atom_site_type_symbol
  _atom_site_label
  _atom_site_symmetry_multiplicity
  _atom_site_fract_x
  _atom_site_fract_y
  _atom_site_fract_z
  _atom_site_occupancy
  Ca  Ca1       1.0  0.8402272346429527  0.4914768859744072  0.3543936787173152  1.0000
  Ca  Ca2       1.0  0.016125518828630447  0.9390221312642097  0.6027732873335481  1.0000
  P   P1        1.0  0.9833365315571427  0.5194739380385727  0.4634409248828888  1.0000
  P   P2        1.0  0.4483972890302539  0.10222475475165993  0.8764257633592933  1.0000
  H   H1        1.0  0.801353577291593  0.7579636992886662  0.5721889521810226  1.0000
  H   H2        1.0  0.9941868514870293  0.21493744850158691  0.5027476660907269  1.0000
  H   H3        1.0  0.759237364429282  0.633381575345993  0.11551948636770248  1.0000
  H   H4        1.0  0.03435088321566582  0.6125699859112501  0.3977514496073127  1.0000
  H   H5        1.0  0.7063097935169935  0.035750456154346466  0.73231340944767  1.0000
  H   H6        1.0  0.7054566200822592  0.801110526532284  0.5146044874563813  1.0000
  H   H7        1.0  0.8352397600247059  0.1234071091748774  0.9856693595647812  1.0000
  H   H8        1.0  0.20733742066659033  0.852990155108273  0.4000668359512929  1.0000
  O   O1        1.0  0.8579862038604915  0.6981443530094111  0.9255688097327948  1.0000
  O   O2        1.0  0.6525277556211222  0.08722881494031753  0.24367827991954982  1.0000
  O   O3        1.0  0.5565051365992986  0.8526320654054871  0.7882833573385142  1.0000
  O   O4        1.0  0.6648452578519937  0.5602778322063386  0.6443503624759614  1.0000
  O   O5        1.0  0.051909508649259806  0.2870397218503058  0.13419444160535932  1.0000
  O   O6        1.0  0.16785750532289967  0.30146132910158485  0.29424443328753114  1.0000
  O   O7        1.0  0.5376808564178646  0.11902957642450929  0.869258334278129  1.0000
  O   O8        1.0  0.6252224069321528  0.33801494468934834  0.5793414618819952  1.0000
  O   O9        1.0  0.8991847094148397  0.1938327793031931  0.3532420052215457  1.0000
  O   O10       1.0  0.5138966207960038  0.08670941973105073  0.43185523338615894  1.0000
  F   F1        1.0  0.563010923564434  0.04126913193613291  0.436573569662869  1.0000
  F   F2        1.0  0.2403110545128584  0.7792914314195514  0.18002919014543295  1.0000
data_image138
_chemical_formula_structural       Ca2P2H8O10F2
_chemical_formula_sum              "Ca2 P2 H8 O10 F2"
_cell_length_a       8.748547242261026
_cell_length_b       6.5292717768421165
_cell_length_c       5.804229554730758
_cell_angle_alpha    118.85637513684739
_cell_angle_beta     110.64940913561757
_cell_angle_gamma    94.26336680621436

_space_group_name_H-M_alt    "P 1"
_space_group_IT_number       1

loop_
  _space_group_symop_operation_xyz
  'x, y, z'

loop_
  _atom_site_type_symbol
  _atom_site_label
  _atom_site_symmetry_multiplicity
  _atom_site_fract_x
  _atom_site_fract_y
  _atom_site_fract_z
  _atom_site_occupancy
  Ca  Ca1       1.0  0.5054655550047755  0.5555523745715618  0.8673318596556783  1.0000
  Ca  Ca2       1.0  0.3479803646914661  0.5997963193804026  0.38144148141145706  1.0000
  P   P1        1.0  0.1380746802315116  0.30974141508340836  0.48400782607495785  1.0000
  P   P2        1.0  0.6549752345308661  0.8509138476802036  0.6831855096388608  1.0000
  H   H1        1.0  0.6740902908386488  0.09065169468522072  0.8823117552092299  1.0000
  H   H2        1.0  0.6832853090018034  0.06289983913302422  0.9364093281328678  1.0000
  H   H3        1.0  0.08023602070170455  0.4966141087934375  0.5513021070510149  1.0000
  H   H4        1.0  0.06965210381895304  0.6556579801253974  0.747621393064037  1.0000
  H   H5        1.0  0.433348735794425  0.357387438416481  0.31771086901426315  1.0000
  H   H6        1.0  0.9058893024921417  0.01781668570038164  0.3147714249789715  1.0000
  H   H7        1.0  0.1657465522439452  0.49732147017493844  0.13594742957502604  1.0000
  H   H8        1.0  0.0413054539822042  0.07490482740104198  0.4293794489640277  1.0000
  O   O1        1.0  0.8063260421622545  0.49057090330461506  0.7486378196626902  1.0000
  O   O2        1.0  0.21547476657724474  0.5215660050453153  0.9730496680713259  1.0000
  O   O3        1.0  0.9432864912669174  0.8138988574137329  0.4257277636206709  1.0000
  O   O4        1.0  0.585481047644862  0.8116910010576248  0.19647331722080708  1.0000
  O   O5        1.0  0.36676052678376436  0.38115019630640745  0.3620512376073748  1.0000
  O   O6        1.0  0.5861224166874308  0.7396568689728156  0.3098735330859199  1.0000
  O   O7        1.0  0.6156135145574808  0.05538543779402971  0.6525949687929824  1.0000
  O   O8        1.0  0.7466751107713208  0.09076526924036443  0.8479517013765872  1.0000
  O   O9        1.0  0.9954435141989961  0.4835893022827804  0.02536440989933908  1.0000
  O   O10       1.0  0.9768332924468268  0.42143105855211616  0.5468189734965563  1.0000
  F   F1        1.0  0.041971828788518906  0.45759517792612314  0.894315451849252  1.0000
  F   F2        1.0  0.19059537420980632  0.40778633020818233  0.83154930267483  1.0000
data_image139
_chemical_formula_structural       Ca2P2H8O10F2
_chemical_formula_sum              "Ca2 P2 H8 O10 F2"
_cell_length_a       8.748547242261026
_cell_length_b       6.5292717768421165
_cell_length_c       5.804229554730758
_cell_angle_alpha    118.85637513684739
_cell_angle_beta     110.64940913561757
_cell_angle_gamma    94.26336680621436

_space_group_name_H-M_alt    "P 1"
_space_group_IT_number       1

loop_
  _space_group_symop_operation_xyz
  'x, y, z'

loop_
  _atom_site_type_symbol
  _atom_site_label
  _atom_site_symmetry_multiplicity
  _atom_site_fract_x
  _atom_site_fract_y
  _atom_site_fract_z
  _atom_site_occupancy
  Ca  Ca1       1.0  0.060041180811822414  0.7863346226513386  0.9852589834481478  1.0000
  Ca  Ca2       1.0  0.09547319263219833  0.9414793979376554  0.8296362711116672  1.0000
  P   P1        1.0  0.5058643971569836  0.28773598885163665  0.690893841907382  1.0000
  P   P2        1.0  0.9172366466373205  0.7802642729366198  0.34261288470588624  1.0000
  H   H1        1.0  0.21489467500214232  0.9756868407130241  0.6497185047483072  1.0000
  H   H2        1.0  0.060808524052845314  0.5497411098331213  0.04837494529783726  1.0000
  H   H3        1.0  0.27141142802429385  0.1782006835564971  0.43048196472227573  1.0000
  H   H4        1.0  0.4758923901244998  0.8480584346689284  0.9003289027605206  1.0000
  H   H5        1.0  0.9582474939525127  0.6504408046603203  0.33293841034173965  1.0000
  H   H6        1.0  0.6362070902250707  0.28339313936885446  0.770138518884778  1.0000
  H   H7        1.0  0.21203290511039086  0.4673416521400213  0.06365298014134169  1.0000
  H   H8        1.0  0.6746136879082769  0.11044609360396862  0.686621298227692  1.0000
  O   O1        1.0  0.5651346179656684  0.878142142057186  0.21926874248310924  1.0000
  O   O2        1.0  0.6241663823602721  0.9984326405101456  0.9529512301669456  1.0000
  O   O3        1.0  0.8264520453303703  0.057984527498774696  0.34106830722885206  1.0000
  O   O4        1.0  0.1039166697737528  0.5039169332012534  0.6674856683239341  1.0000
  O   O5        1.0  0.4455494098365307  0.4764966000802815  0.916397217893973  1.0000
  O   O6        1.0  0.3567047419201117  0.8164784651016816  0.7923387461341918  1.0000
  O   O7        1.0  0.989150314591825  0.9864169699139893  0.24058338126633316  1.0000
  O   O8        1.0  0.21813287085387856  0.919965025736019  0.8972783875651658  1.0000
  O   O9        1.0  0.6669217649614438  0.6873805415816605  0.2660258929245174  1.0000
  O   O10       1.0  0.6304407896604971  0.47161960881203413  0.9594420059584081  1.0000
  F   F1        1.0  0.9106131866574287  0.7152238050475717  0.33658532006666064  1.0000
  F   F2        1.0  0.5062353787943721  0.5736404610797763  0.4589457353577018  1.0000
data_image140
_chemical_formula_structural       Ca2P2H8O10F2
_chemical_formula_sum              "Ca2 P2 H8 O10 F2"
_cell_length_a       8.748547242261026
_cell_length_b       6.5292717768421165
_cell_length_c       5.804229554730758
_cell_angle_alpha    118.85637513684739
_cell_angle_beta     110.64940913561757
_cell_angle_gamma    94.26336680621436

_space_group_name_H-M_alt    "P 1"
_space_group_IT_number       1

loop_
  _space_group_symop_operation_xyz
  'x, y, z'

loop_
  _atom_site_type_symbol
  _atom_site_label
  _atom_site_symmetry_multiplicity
  _atom_site_fract_x
  _atom_site_fract_y
  _atom_site_fract_z
  _atom_site_occupancy
  Ca  Ca1       1.0  0.6184789212420583  0.8628000672906637  0.7196027366444468  1.0000
  Ca  Ca2       1.0  0.696516280528158  0.6311917882412672  0.9075786378234625  1.0000
  P   P1        1.0  0.4812207294162363  0.7432660371996462  0.2385817300528288  1.0000
  P   P2        1.0  0.8810912640765309  0.07130890002008528  0.009825496934354305  1.0000
  H   H1        1.0  0.35353037129243603  0.048417894169688225  0.3645250165136531  1.0000
  H   H2        1.0  0.08377102189115249  0.4744386491365731  0.6221543122082949  1.0000
  H   H3        1.0  0.9269436018366832  0.6614233097061515  0.08966943062841892  1.0000
  H   H4        1.0  0.22533515095710754  0.3485938776284456  0.6455761997494847  1.0000
  H   H5        1.0  0.28086019679903984  0.11451593786478043  0.16025517880916595  1.0000
  H   H6        1.0  0.2540873703546822  0.045061135780997574  0.36291472520679235  1.0000
  H   H7        1.0  0.3772839757584734  0.6061471640132368  0.769487988203764  1.0000
  H   H8        1.0  0.2976218084804714  0.2889834400266409  0.540232192754047  1.0000
  O   O1        1.0  0.7096723162103444  0.6375815033970866  0.008167710853740573  1.0000
  O   O2        1.0  0.5825068843842018  0.8278736417705659  0.5655934815295041  1.0000
  O   O3        1.0  0.8109559011718375  0.5326365914734197  0.8840467613190413  1.0000
  O   O4        1.0  0.43969332927372307  0.8469362170435488  0.4541126196272671  1.0000
  O   O5        1.0  0.5409171786159277  0.6920747859403491  0.8666647379286587  1.0000
  O   O6        1.0  0.39728952111909166  0.36077990534249693  0.1981360682984814  1.0000
  O   O7        1.0  0.24149668484460562  0.4095684376079589  0.28001306066289544  1.0000
  O   O8        1.0  0.25966926442924887  0.679206436034292  0.9781898041255772  1.0000
  O   O9        1.0  0.3339598691673018  0.8987119090743363  0.056816411670297384  1.0000
  O   O10       1.0  0.22059675084528862  0.3754047774709761  0.38813706999644637  1.0000
  F   F1        1.0  0.5381675967946649  0.6096065491437912  0.5807942352257669  1.0000
  F   F2        1.0  0.4799067988060415  0.9991421988233924  0.6690726056694984  1.0000
data_image141
_chemical_formula_structural       Ca2P2H8O10F2
_chemical_formula_sum              "Ca2 P2 H8 O10 F2"
_cell_length_a       8.748547242261026
_cell_length_b       6.5292717768421165
_cell_length_c       5.804229554730758
_cell_angle_alpha    118.85637513684739
_cell_angle_beta     110.64940913561757
_cell_angle_gamma    94.26336680621436

_space_group_name_H-M_alt    "P 1"
_space_group_IT_number       1

loop_
  _space_group_symop_operation_xyz
  'x, y, z'

loop_
  _atom_site_type_symbol
  _atom_site_label
  _atom_site_symmetry_multiplicity
  _atom_site_fract_x
  _atom_site_fract_y
  _atom_site_fract_z
  _atom_site_occupancy
  Ca  Ca1       1.0  0.43112550769001245  0.23324480094015598  0.05532095301896334  1.0000
  Ca  Ca2       1.0  0.8443627133965492  0.8053317535668612  0.031179520301520824  1.0000
  P   P1        1.0  0.8994513333309442  0.4220591471530497  0.6090421546250582  1.0000
  P   P2        1.0  0.6476865876466036  0.23662032699212432  0.686918591381982  1.0000
  H   H1        1.0  0.14473238080972806  0.6939216367900372  0.7030599378049374  1.0000
  H   H2        1.0  0.6458325190178584  0.7484975750558078  0.1802670992910862  1.0000
  H   H3        1.0  0.5611271719099022  0.32189251855015755  0.01510256715118885  1.0000
  H   H4        1.0  0.33950350899249315  0.9109087195247412  0.7992666056379676  1.0000
  H   H5        1.0  0.5520961824804544  0.9300142750144005  0.578620932996273  1.0000
  H   H6        1.0  0.9727303958497941  0.7480901130475104  0.847761201672256  1.0000
  H   H7        1.0  0.37705879105180884  0.5790299978107214  0.10342804063111544  1.0000
  H   H8        1.0  0.7657271244097501  0.011558678932487965  0.9713578180089826  1.0000
  O   O1        1.0  0.8741374681703746  0.14522449682408478  0.8794819077011198  1.0000
  O   O2        1.0  0.6226753227529116  0.7122084980073851  0.9352294430136681  1.0000
  O   O3        1.0  0.07907992978289258  0.5647154389589559  0.1691934832779225  1.0000
  O   O4        1.0  0.9580950125236996  0.2780522298999131  0.9318295903503895  1.0000
  O   O5        1.0  0.6004469366744161  0.14320645481348038  0.9598019849509001  1.0000
  O   O6        1.0  0.06665379012702033  0.4170277543598786  0.6183218538062647  1.0000
  O   O7        1.0  0.8752481112605892  0.5956357750110328  0.5563812685431913  1.0000
  O   O8        1.0  0.9419802984921262  0.6179967361968011  0.19066258845850825  1.0000
  O   O9        1.0  0.9967054935405031  0.9647717550396919  0.5023675295524299  1.0000
  O   O10       1.0  0.6782328362933185  0.5804163701832294  0.1806755643337965  1.0000
  F   F1        1.0  0.9038476962596178  0.3004553383216262  0.6611066577024758  1.0000
  F   F2        1.0  0.08796861325390637  0.778528667986393  0.7924138065427542  1.0000
data_image142
_chemical_formula_structural       Ca2P2H8O10F2
_chemical_formula_sum              "Ca2 P2 H8 O10 F2"
_cell_length_a       8.748547242261026
_cell_length_b       6.5292717768421165
_cell_length_c       5.804229554730758
_cell_angle_alpha    118.85637513684739
_cell_angle_beta     110.64940913561757
_cell_angle_gamma    94.26336680621436

_space_group_name_H-M_alt    "P 1"
_space_group_IT_number       1

loop_
  _space_group_symop_operation_xyz
  'x, y, z'

loop_
  _atom_site_type_symbol
  _atom_site_label
  _atom_site_symmetry_multiplicity
  _atom_site_fract_x
  _atom_site_fract_y
  _atom_site_fract_z
  _atom_site_occupancy
  Ca  Ca1       1.0  0.9140337593853474  0.8928036540746689  0.9179655341431499  1.0000
  Ca  Ca2       1.0  0.6480405936017632  0.5635654460638762  0.2599694738164544  1.0000
  P   P1        1.0  0.7676921410020441  0.5114302360452712  0.7117026969790459  1.0000
  P   P2        1.0  0.7658973773941398  0.8209714883705601  0.11917307251133025  1.0000
  H   H1        1.0  0.2565559317008592  0.7447520261630416  0.14726303273346275  1.0000
  H   H2        1.0  0.9345689341134857  0.16705357283353806  0.4149569980800152  1.0000
  H   H3        1.0  0.7952755925653037  0.22232277318835258  0.840407682582736  1.0000
  H   H4        1.0  0.004158508963882923  0.16901329439133406  0.7791485134512186  1.0000
  H   H5        1.0  0.34685557521879673  0.46283183991909027  0.02639668434858322  1.0000
  H   H6        1.0  0.8671782275196165  0.37610011803917587  0.720651039853692  1.0000
  H   H7        1.0  0.08931728101015324  0.735034835524857  0.3730320055037737  1.0000
  H   H8        1.0  0.3333569399546832  0.8669516984373331  0.6284073164279107  1.0000
  O   O1        1.0  0.7621975538786501  0.11519506612967234  0.5767639125697315  1.0000
  O   O2        1.0  0.9689779099426232  0.1647890936874319  0.9423903659335338  1.0000
  O   O3        1.0  0.41164984127681237  0.6758235044399044  0.6675759395293426  1.0000
  O   O4        1.0  0.8647635166998953  0.6811352116055787  0.81707893172279  1.0000
  O   O5        1.0  0.8965010326355696  0.6222266345284879  0.7924752177204937  1.0000
  O   O6        1.0  0.27249347616452724  0.6299548152601346  0.6681264532962814  1.0000
  O   O7        1.0  0.47875977581134066  0.16127669345587492  0.13450775225646794  1.0000
  O   O8        1.0  0.5557209342950955  0.09106052806600928  0.17943969927728176  1.0000
  O   O9        1.0  0.6856926201144233  0.9449446238577366  0.7609954040963203  1.0000
  O   O10       1.0  0.002691874840820674  0.3638480971567333  0.6528105661273003  1.0000
  F   F1        1.0  0.11477520503103733  0.13334226980805397  0.2814719555899501  1.0000
  F   F2        1.0  0.7584707960486412  0.5672087287530303  0.8376661194488406  1.0000
data_image143
_chemical_formula_structural       Ca2P2H8O10F2
_chemical_formula_sum              "Ca2 P2 H8 O10 F2"
_cell_length_a       8.748547242261026
_cell_length_b       6.5292717768421165
_cell_length_c       5.804229554730758
_cell_angle_alpha    118.85637513684739
_cell_angle_beta     110.64940913561757
_cell_angle_gamma    94.26336680621436

_space_group_name_H-M_alt    "P 1"
_space_group_IT_number       1

loop_
  _space_group_symop_operation_xyz
  'x, y, z'

loop_
  _atom_site_type_symbol
  _atom_site_label
  _atom_site_symmetry_multiplicity
  _atom_site_fract_x
  _atom_site_fract_y
  _atom_site_fract_z
  _atom_site_occupancy
  Ca  Ca1       1.0  0.43030826188623905  0.01511751115322113  0.011215492151677608  1.0000
  Ca  Ca2       1.0  0.4649675749242306  0.36708053946495056  0.6679453924298286  1.0000
  P   P1        1.0  0.5166120619978756  0.9237313801422715  0.03816873952746391  1.0000
  P   P2        1.0  0.33310909755527973  0.5733025727095082  0.5555861869361252  1.0000
  H   H1        1.0  0.640632142603863  0.11122807953506708  0.20954869966953993  1.0000
  H   H2        1.0  0.9516366798779927  0.3805321999825537  0.2740729860961437  1.0000
  H   H3        1.0  0.8805072869872674  0.5510532390326262  0.6448740344494581  1.0000
  H   H4        1.0  0.803620801307261  0.09707551123574376  0.35881795547902584  1.0000
  H   H5        1.0  0.21649307198822498  0.8234946429729462  0.3841240033507347  1.0000
  H   H6        1.0  0.5255728128831834  0.8415669775567949  0.8533250158652663  1.0000
  H   H7        1.0  0.021738646595622413  0.8456345181912184  0.5537794213742018  1.0000
  H   H8        1.0  0.16493275086395442  0.7529141851700842  0.3562356748152524  1.0000
  O   O1        1.0  0.9139093898702413  0.12478734148317017  0.7649948734324425  1.0000
  O   O2        1.0  0.29940955206984654  0.7490176954888739  0.3382424828596413  1.0000
  O   O3        1.0  0.5299574354430661  0.2020353818879812  0.5312224111694377  1.0000
  O   O4        1.0  0.6626497681136243  0.23397671803832054  0.9806001139804721  1.0000
  O   O5        1.0  0.10367574263364077  0.3223158954642713  0.2247634781524539  1.0000
  O   O6        1.0  0.21659646855550818  0.3490839112782851  0.39818529167678207  1.0000
  O   O7        1.0  0.2089206936652772  0.817208279389888  0.22624766477383673  1.0000
  O   O8        1.0  0.11011693824548274  0.49510063766501844  0.7113993992097676  1.0000
  O   O9        1.0  0.1955481797340326  0.49970881221815944  0.2170240853447467  1.0000
  O   O10       1.0  0.17578824677184457  0.5776385776698589  0.6910900883376598  1.0000
  F   F1        1.0  0.9568898472934961  0.7945854142308235  0.4614690134767443  1.0000
  F   F2        1.0  0.3279201539698988  0.650941583327949  0.8569231377914548  1.0000
data_image144
_chemical_formula_structural       Ca2P2H8O10F2
_chemical_formula_sum              "Ca2 P2 H8 O10 F2"
_cell_length_a       8.748547242261026
_cell_length_b       6.5292717768421165
_cell_length_c       5.804229554730758
_cell_angle_alpha    118.85637513684739
_cell_angle_beta     110.64940913561757
_cell_angle_gamma    94.26336680621436

_space_group_name_H-M_alt    "P 1"
_space_group_IT_number       1

loop_
  _space_group_symop_operation_xyz
  'x, y, z'

loop_
  _atom_site_type_symbol
  _atom_site_label
  _atom_site_symmetry_multiplicity
  _atom_site_fract_x
  _atom_site_fract_y
  _atom_site_fract_z
  _atom_site_occupancy
  Ca  Ca1       1.0  0.46142066549509764  0.8882345333695412  0.34177040215581656  1.0000
  Ca  Ca2       1.0  0.9986697961576283  0.9898761957883835  0.29056175984442234  1.0000
  P   P1        1.0  0.3745299915317446  0.3972502537071705  0.21954227983951569  1.0000
  P   P2        1.0  0.06843397207558155  0.8381616208935156  0.9842402909416705  1.0000
  H   H1        1.0  0.6786314776400104  0.1755111115053296  0.5166481003398076  1.0000
  H   H2        1.0  0.8824187556601828  0.046331269666552544  0.9477508962154388  1.0000
  H   H3        1.0  0.21338380154338665  0.7400989457964897  0.4603438265621662  1.0000
  H   H4        1.0  0.21452930103987455  0.19676012685522437  0.11889378307387233  1.0000
  H   H5        1.0  0.7382584549486637  0.37529025226831436  0.13616369664669037  1.0000
  H   H6        1.0  0.7586005800403655  0.47687172843143344  0.16317777521908283  1.0000
  H   H7        1.0  0.07865018899610732  0.09983356669545174  0.6947336476296186  1.0000
  H   H8        1.0  0.37950882804580033  0.30883608665317297  0.09909362801408861  1.0000
  O   O1        1.0  0.8341155280359089  0.34423292154679075  0.21856035594828427  1.0000
  O   O2        1.0  0.44682355751865543  0.8604091294691898  0.054123849666211754  1.0000
  O   O3        1.0  0.38003443769412115  0.4192262276128531  0.7764136069163214  1.0000
  O   O4        1.0  0.5477055660448968  0.9027985674329102  0.5131479208357632  1.0000
  O   O5        1.0  0.39687930839136243  0.8159256097860634  0.17407576995901763  1.0000
  O   O6        1.0  0.3305793742183596  0.7059683623956516  0.6006069377763197  1.0000
  O   O7        1.0  0.4896719570388086  0.20483518624678254  0.5475385574391112  1.0000
  O   O8        1.0  0.6482878611423075  0.4848289955407381  0.8496974213048816  1.0000
  O   O9        1.0  0.9802462328807451  0.9095414439216256  0.3765005860477686  1.0000
  O   O10       1.0  0.1031347086536698  0.2830619930755347  0.9461508560925722  1.0000
  F   F1        1.0  0.5720093939453363  0.92453857883811  0.27332551253493875  1.0000
  F   F2        1.0  0.48319281614385545  0.37163028214126825  0.8282639598473907  1.0000
data_image145
_chemical_formula_structural       Ca2P2H8O10F2
_chemical_formula_sum              "Ca2 P2 H8 O10 F2"
_cell_length_a       8.748547242261026
_cell_length_b       6.5292717768421165
_cell_length_c       5.804229554730758
_cell_angle_alpha    118.85637513684739
_cell_angle_beta     110.64940913561757
_cell_angle_gamma    94.26336680621436

_space_group_name_H-M_alt    "P 1"
_space_group_IT_number       1

loop_
  _space_group_symop_operation_xyz
  'x, y, z'

loop_
  _atom_site_type_symbol
  _atom_site_label
  _atom_site_symmetry_multiplicity
  _atom_site_fract_x
  _atom_site_fract_y
  _atom_site_fract_z
  _atom_site_occupancy
  Ca  Ca1       1.0  0.23164195101708174  0.9942339491099119  0.11879927013069391  1.0000
  Ca  Ca2       1.0  0.03214742010459304  0.6747687086462975  0.41436436865478754  1.0000
  P   P1        1.0  0.5872843761462718  0.3885892741382122  0.7537759188562632  1.0000
  P   P2        1.0  0.6625003460794687  0.7978159307967871  0.18236462981440127  1.0000
  H   H1        1.0  0.892177713685669  0.7077058078721166  0.40228541125543416  1.0000
  H   H2        1.0  0.16429542694822885  0.2990243583917618  0.05169318616390228  1.0000
  H   H3        1.0  0.3768770205497276  0.9139134101569653  0.03910857066512108  1.0000
  H   H4        1.0  0.6636409359052777  0.5656735696829855  0.7701511001214385  1.0000
  H   H5        1.0  0.8675436154007912  0.3585057556629181  0.3437861055135727  1.0000
  H   H6        1.0  0.846614902256988  0.49896501703187823  0.5521368896588683  1.0000
  H   H7        1.0  0.5358937496057479  0.2945832805708051  0.7440495993942022  1.0000
  H   H8        1.0  0.9806307209655643  0.56855234131217  0.6241202912060544  1.0000
  O   O1        1.0  0.22664956911467016  0.1184447516570799  0.8452451860066503  1.0000
  O   O2        1.0  0.7490283107908908  0.2598699750233209  0.658680121647194  1.0000
  O   O3        1.0  0.7619695274515834  0.6260090947375829  0.28410376285319217  1.0000
  O   O4        1.0  0.9198931393329985  0.9259943501092494  0.015500646084547043  1.0000
  O   O5        1.0  0.49561517080292106  0.12684857239946723  0.9647312322631478  1.0000
  O   O6        1.0  0.6888518435007427  0.4156076662475243  0.8511592050781474  1.0000
  O   O7        1.0  0.1431715449434705  0.812435204628855  0.9371803989633918  1.0000
  O   O8        1.0  0.19699229230172932  0.05898991087451577  0.9929802240803838  1.0000
  O   O9        1.0  0.5522612332133576  0.7393273832276464  0.4282251321710646  1.0000
  O   O10       1.0  0.368463134564081  0.7183781282510608  0.9598785326816142  1.0000
  F   F1        1.0  0.38080155570060015  0.23387271352112293  0.4602951232227497  1.0000
  F   F2        1.0  0.3290623377542943  0.6352600576356053  0.1988699147477746  1.0000
data_image146
_chemical_formula_structural       Ca2P2H8O10F2
_chemical_formula_sum              "Ca2 P2 H8 O10 F2"
_cell_length_a       8.748547242261026
_cell_length_b       6.5292717768421165
_cell_length_c       5.804229554730758
_cell_angle_alpha    118.85637513684739
_cell_angle_beta     110.64940913561757
_cell_angle_gamma    94.26336680621436

_space_group_name_H-M_alt    "P 1"
_space_group_IT_number       1

loop_
  _space_group_symop_operation_xyz
  'x, y, z'

loop_
  _atom_site_type_symbol
  _atom_site_label
  _atom_site_symmetry_multiplicity
  _atom_site_fract_x
  _atom_site_fract_y
  _atom_site_fract_z
  _atom_site_occupancy
  Ca  Ca1       1.0  0.0572893712669611  0.03335527889430523  0.9528022464364767  1.0000
  Ca  Ca2       1.0  0.6131208995357156  0.34433582052588463  0.3943787766620517  1.0000
  P   P1        1.0  0.8476924581918865  0.08403732813894749  0.9866525772958994  1.0000
  P   P2        1.0  0.9349522674456239  0.12110004993155599  0.8971558487974107  1.0000
  H   H1        1.0  0.4282593814423308  0.07561980653554201  0.5835618282435462  1.0000
  H   H2        1.0  0.9379500325558183  0.1285497942008078  0.5474874982610345  1.0000
  H   H3        1.0  0.7118497957417276  0.46366562508046627  0.35076747462153435  1.0000
  H   H4        1.0  0.9692480452358723  0.11382716801017523  0.34798630932345986  1.0000
  H   H5        1.0  0.5162744354456663  0.38314372301101685  0.7113853543996811  1.0000
  H   H6        1.0  0.07104445702861995  0.9028374617919326  0.31832397636026144  1.0000
  H   H7        1.0  0.73434991058366  0.5046583591029048  0.28046999126672745  1.0000
  H   H8        1.0  0.10265428596176207  0.21578099438920617  0.7106207916804124  1.0000
  O   O1        1.0  0.6308331543114036  0.9034961276629474  0.820053000934422  1.0000
  O   O2        1.0  0.675881616800325  0.989668099777191  0.6126425834954716  1.0000
  O   O3        1.0  0.9411155525504  0.29460335458861664  0.3872721437655855  1.0000
  O   O4        1.0  0.847434924216941  0.8397367992438376  0.6663527791388333  1.0000
  O   O5        1.0  0.6835780055262148  0.19705212675035  0.7833053031936288  1.0000
  O   O6        1.0  0.4764564972720109  0.09285184985492378  0.7833529424387962  1.0000
  O   O7        1.0  0.34891583560965955  0.8177098683081567  0.7556046568788588  1.0000
  O   O8        1.0  0.9418024696642533  0.7027903513517231  0.786481998860836  1.0000
  O   O9        1.0  0.7597964161541313  0.46733096800744534  0.8127788845449686  1.0000
  O   O10       1.0  0.5996159500673457  0.08153073629364371  0.9545625480823219  1.0000
  F   F1        1.0  0.4900181367993355  0.8748147748410702  0.1928714913665317  1.0000
  F   F2        1.0  0.4674056596122682  0.6208334257826209  0.901779473759234  1.0000
data_image147
_chemical_formula_structural       Ca2P2H8O10F2
_chemical_formula_sum              "Ca2 P2 H8 O10 F2"
_cell_length_a       8.748547242261026
_cell_length_b       6.5292717768421165
_cell_length_c       5.804229554730758
_cell_angle_alpha    118.85637513684739
_cell_angle_beta     110.64940913561757
_cell_angle_gamma    94.26336680621436

_space_group_name_H-M_alt    "P 1"
_space_group_IT_number       1

loop_
  _space_group_symop_operation_xyz
  'x, y, z'

loop_
  _atom_site_type_symbol
  _atom_site_label
  _atom_site_symmetry_multiplicity
  _atom_site_fract_x
  _atom_site_fract_y
  _atom_site_fract_z
  _atom_site_occupancy
  Ca  Ca1       1.0  0.7773624453693628  0.20307078771293163  0.19591139256954193  1.0000
  Ca  Ca2       1.0  0.7081936127506196  0.446701942011714  0.12896534707397223  1.0000
  P   P1        1.0  0.03451847308315337  0.15391546674072742  0.9634206742048264  1.0000
  P   P2        1.0  0.9538364838808775  0.602226365765091  0.10728299058973789  1.0000
  H   H1        1.0  0.3094560634926893  0.1798460641875863  0.7494880347512662  1.0000
  H   H2        1.0  0.5357883023098111  0.9169467482715845  0.7167940884828568  1.0000
  H   H3        1.0  0.24366041651228443  0.015560847707092762  0.8443275522440672  1.0000
  H   H4        1.0  0.4729010546579957  0.3448793012648821  0.9102871646173298  1.0000
  H   H5        1.0  0.9046607725322247  0.8949356898665428  0.9926362335681915  1.0000
  H   H6        1.0  0.894229561672546  0.3603959218598902  0.880452211946249  1.0000
  H   H7        1.0  0.9682258328120952  0.38280359003692865  0.695537181571126  1.0000
  H   H8        1.0  0.6364657853264362  0.23205458605661988  0.48199190708692186  1.0000
  O   O1        1.0  0.5314875291660428  0.08478305753669702  0.3598258518613875  1.0000
  O   O2        1.0  0.587389031847124  0.5528887279942865  0.1884136053849943  1.0000
  O   O3        1.0  0.28380979420580843  0.4655070329026785  0.33408035908360034  1.0000
  O   O4        1.0  0.6091821542941034  0.6831407113932073  0.265334109775722  1.0000
  O   O5        1.0  0.2951617296785116  0.9314947668462992  0.8770523513667285  1.0000
  O   O6        1.0  0.6047112779633608  0.6707519937772304  0.5296735039446503  1.0000
  O   O7        1.0  0.3953843439812772  0.712922046193853  0.3041697768494487  1.0000
  O   O8        1.0  0.5833407480968162  0.25048017129302025  0.954908424988389  1.0000
  O   O9        1.0  0.3478622523252852  0.8166004624217749  0.7636843773070723  1.0000
  O   O10       1.0  0.4842834956580191  0.596760255517438  0.980848016217351  1.0000
  F   F1        1.0  0.5228549223393202  0.09177343174815178  0.20153579127509147  1.0000
  F   F2        1.0  0.19796253135427833  0.5336532248184085  0.32011915277689695  1.0000
data_image148
_chemical_formula_structural       Ca2P2H8O10F2
_chemical_formula_sum              "Ca2 P2 H8 O10 F2"
_cell_length_a       8.748547242261026
_cell_length_b       6.5292717768421165
_cell_length_c       5.804229554730758
_cell_angle_alpha    118.85637513684739
_cell_angle_beta     110.64940913561757
_cell_angle_gamma    94.26336680621436

_space_group_name_H-M_alt    "P 1"
_space_group_IT_number       1

loop_
  _space_group_symop_operation_xyz
  'x, y, z'

loop_
  _atom_site_type_symbol
  _atom_site_label
  _atom_site_symmetry_multiplicity
  _atom_site_fract_x
  _atom_site_fract_y
  _atom_site_fract_z
  _atom_site_occupancy
  Ca  Ca1       1.0  0.8847520779818296  0.16884490847587585  0.7260191161185503  1.0000
  Ca  Ca2       1.0  0.35163142485544086  0.5882641188800335  0.11746344901621342  1.0000
  P   P1        1.0  0.7234802737366408  0.3561843791976571  0.0331251285970211  1.0000
  P   P2        1.0  0.6435940815135837  0.3074779120506719  0.07389665301889181  1.0000
  H   H1        1.0  0.8577318140887655  0.5032696826383471  0.46216048893984407  1.0000
  H   H2        1.0  0.25818364685983397  0.8384765665978193  0.6945956908166409  1.0000
  H   H3        1.0  0.848333984205965  0.3426035773009062  0.782179806381464  1.0000
  H   H4        1.0  0.06851882068440318  0.14325280860066414  0.8464612967800349  1.0000
  H   H5        1.0  0.13562669046223164  0.564756266772747  0.856818214058876  1.0000
  H   H6        1.0  0.19953603169415146  0.43585612811148167  0.9227130590006709  1.0000
  H   H7        1.0  0.6612455118447542  0.10581515170633793  0.21236932122701546  1.0000
  H   H8        1.0  0.9493717872537673  0.8545462205074728  0.8531749481044244  1.0000
  O   O1        1.0  0.2540034643607214  0.6715016101661604  0.27114899875596166  1.0000
  O   O2        1.0  0.9816700363880955  0.5171603846683865  0.15366522641852498  1.0000
  O   O3        1.0  0.3020384805822687  0.8865800563726225  0.06574498221743852  1.0000
  O   O4        1.0  0.3850398306385614  0.9616032605990767  0.08861827431246638  1.0000
  O   O5        1.0  0.3005004581063986  0.08666026312857866  0.3867092451546341  1.0000
  O   O6        1.0  0.05488347547361627  0.08312045538332313  0.19626066775526851  1.0000
  O   O7        1.0  0.03573051997227594  0.20274272025562823  0.30845741950906813  1.0000
  O   O8        1.0  0.6995782626327127  0.3516866313293576  0.698163284920156  1.0000
  O   O9        1.0  0.08775086572859436  0.830783779732883  0.9264365856070071  1.0000
  O   O10       1.0  0.980884562664869  0.10443376819603145  0.7765463404357433  1.0000
  F   F1        1.0  0.42709738947451115  0.9573050942271948  0.32407207920914516  1.0000
  F   F2        1.0  0.26556745439302176  0.35048868600279093  0.9648682558909059  1.0000
data_image149
_chemical_formula_structural       Ca2P2H8O10F2
_chemical_formula_sum              "Ca2 P2 H8 O10 F2"
_cell_length_a       8.748547242261026
_cell_length_b       6.5292717768421165
_cell_length_c       5.804229554730758
_cell_angle_alpha    118.85637513684739
_cell_angle_beta     110.64940913561757
_cell_angle_gamma    94.26336680621436

_space_group_name_H-M_alt    "P 1"
_space_group_IT_number       1

loop_
  _space_group_symop_operation_xyz
  'x, y, z'

loop_
  _atom_site_type_symbol
  _atom_site_label
  _atom_site_symmetry_multiplicity
  _atom_site_fract_x
  _atom_site_fract_y
  _atom_site_fract_z
  _atom_site_occupancy
  Ca  Ca1       1.0  0.45088542718440294  0.7461592629551888  0.5836045518517494  1.0000
  Ca  Ca2       1.0  0.004880473017692566  0.4979596175253391  0.8120994744822383  1.0000
  P   P1        1.0  0.9824174963869154  0.055806925520300865  0.371944485232234  1.0000
  P   P2        1.0  0.8332794550806284  0.4542427727137692  0.2580182340461761  1.0000
  H   H1        1.0  0.9943080177763477  0.6638295836746693  0.6730030270991847  1.0000
  H   H2        1.0  0.4856370339402929  0.8082039742730558  0.5681804167106748  1.0000
  H   H3        1.0  0.8458854478085414  0.9976087817922235  0.6857390981167555  1.0000
  H   H4        1.0  0.5293663083575666  0.320896357530728  0.22942664148285985  1.0000
  H   H5        1.0  0.48666030168533325  0.615321159362793  0.35559825599193573  1.0000
  H   H6        1.0  0.39547541399952024  0.7850761208683252  0.03435290791094303  1.0000
  H   H7        1.0  0.7690482465550303  0.23148448392748833  0.38231239188462496  1.0000
  H   H8        1.0  0.4882590185152367  0.4650976925622672  0.13286181073635817  1.0000
  O   O1        1.0  0.34338588698301464  0.11820442067983095  0.9889951220247895  1.0000
  O   O2        1.0  0.9864963090512902  0.35629321343731135  0.9400463660131209  1.0000
  O   O3        1.0  0.5918474444642925  0.47894250661920523  0.8846782616456039  1.0000
  O   O4        1.0  0.689905597420875  0.7764506312087178  0.5061194216832519  1.0000
  O   O5        1.0  0.5157855674624443  0.9765265183523297  0.021718879463151097  1.0000
  O   O6        1.0  0.14752897634753026  0.5701305563561618  0.14723855664487928  1.0000
  O   O7        1.0  0.741128833964467  0.9101108985487372  0.1789830334018916  1.0000
  O   O8        1.0  0.8499181820079684  0.19192764139734209  0.4898219997994602  1.0000
  O   O9        1.0  0.9233929672045633  0.15263105230405927  0.6618596648331732  1.0000
  O   O10       1.0  0.29348392457632144  0.16678189020603895  0.2666240674443543  1.0000
  F   F1        1.0  0.3794044069945812  0.27786429785192013  0.771523725183215  1.0000
  F   F2        1.0  0.627917641424574  0.9403692129999399  0.08520338591188192  1.0000
data_image150
_chemical_formula_structural       Ca2P2H8O10F2
_chemical_formula_sum              "Ca2 P2 H8 O10 F2"
_cell_length_a       8.748547242261026
_cell_length_b       6.5292717768421165
_cell_length_c       5.804229554730758
_cell_angle_alpha    118.85637513684739
_cell_angle_beta     110.64940913561757
_cell_angle_gamma    94.26336680621436

_space_group_name_H-M_alt    "P 1"
_space_group_IT_number       1

loop_
  _space_group_symop_operation_xyz
  'x, y, z'

loop_
  _atom_site_type_symbol
  _atom_site_label
  _atom_site_symmetry_multiplicity
  _atom_site_fract_x
  _atom_site_fract_y
  _atom_site_fract_z
  _atom_site_occupancy
  Ca  Ca1       1.0  0.5128647489473224  0.42085379362106323  0.8684008913114667  1.0000
  Ca  Ca2       1.0  0.8225837033241987  0.6545210089534521  0.942273966036737  1.0000
  P   P1        1.0  0.6925701652653515  0.4627483179792762  0.9333282746374607  1.0000
  P   P2        1.0  0.11721985135227442  0.39793534472119063  0.6277617732994258  1.0000
  H   H1        1.0  0.27712303353473544  0.9849557112902403  0.4391070620622486  1.0000
  H   H2        1.0  0.47574400570010766  0.9631926426663995  0.758957514539361  1.0000
  H   H3        1.0  0.48562687024241313  0.751943914219737  0.7368994187563658  1.0000
  H   H4        1.0  0.09991406882181764  0.31703659310005605  0.6499669563490897  1.0000
  H   H5        1.0  0.8044469058513641  0.22209235280752182  0.9158391654491425  1.0000
  H   H6        1.0  0.5294230034342036  0.9997706031426787  0.49483089055866003  1.0000
  H   H7        1.0  0.5905013494193554  0.5488254837691784  0.46077868063002825  1.0000
  H   H8        1.0  0.07449840882327408  0.30087773129343987  0.47959217987954617  1.0000
  O   O1        1.0  0.7450303757796064  0.874438163737068  0.9166843930725008  1.0000
  O   O2        1.0  0.3666017019568244  0.656990013034374  0.42713141260901466  1.0000
  O   O3        1.0  0.11057774669370701  0.16034063326151227  0.16783304285490885  1.0000
  O   O4        1.0  0.6838680451619439  0.9278748170472682  0.6278603612445295  1.0000
  O   O5        1.0  0.5004620333202183  0.28052975749596953  0.1331780629698187  1.0000
  O   O6        1.0  0.48992829443886876  0.2992523746797815  0.5909482053248212  1.0000
  O   O7        1.0  0.39059141447069123  0.4875938016921282  0.7338385879993439  1.0000
  O   O8        1.0  0.39328481478150934  0.25998855475336313  0.3251767340116203  1.0000
  O   O9        1.0  0.16693122644210234  0.6696185716427863  0.9681516892742366  1.0000
  O   O10       1.0  0.6490654048102442  0.9434843803755939  0.29671343602240086  1.0000
  F   F1        1.0  0.3165318723767996  0.9809393808245659  0.12692456896184012  1.0000
  F   F2        1.0  0.4459352314006537  0.0036566592752933502  0.6067174421623349  1.0000
data_image151
_chemical_formula_structural       Ca2P2H8O10F2
_chemical_formula_sum              "Ca2 P2 H8 O10 F2"
_cell_length_a       8.748547242261026
_cell_length_b       6.5292717768421165
_cell_length_c       5.804229554730758
_cell_angle_alpha    118.85637513684739
_cell_angle_beta     110.64940913561757
_cell_angle_gamma    94.26336680621436

_space_group_name_H-M_alt    "P 1"
_space_group_IT_number       1

loop_
  _space_group_symop_operation_xyz
  'x, y, z'

loop_
  _atom_site_type_symbol
  _atom_site_label
  _atom_site_symmetry_multiplicity
  _atom_site_fract_x
  _atom_site_fract_y
  _atom_site_fract_z
  _atom_site_occupancy
  Ca  Ca1       1.0  0.46379319950938225  0.9489138834178448  0.045560119673609734  1.0000
  Ca  Ca2       1.0  0.42276088101789355  0.30857450887560844  0.20169067569077015  1.0000
  P   P1        1.0  0.7719858451746404  0.3437921144068241  0.1534912772476673  1.0000
  P   P2        1.0  0.8128310153260827  0.9471343291806988  0.7239974767435342  1.0000
  H   H1        1.0  0.6314063050085679  0.8181476583704352  0.10192273405846208  1.0000
  H   H2        1.0  0.24616445851279423  0.424174290150404  0.2496041227132082  1.0000
  H   H3        1.0  0.5652332580357324  0.9138113250955939  0.8885979559272528  1.0000
  H   H4        1.0  0.13836324401199818  0.6553596907760948  0.9732705738861114  1.0000
  H   H5        1.0  0.6196302305907011  0.8857921659946442  0.5745141431689262  1.0000
  H   H6        1.0  0.8156341387657449  0.16621056478470564  0.7997032543644309  1.0000
  H   H7        1.0  0.7068733097985387  0.05123811960220337  0.36249235458672047  1.0000
  H   H8        1.0  0.890462054987438  0.6010147389024496  0.25067656487226486  1.0000
  O   O1        1.0  0.7986408981960267  0.5064841119019547  0.8521057029720396  1.0000
  O   O2        1.0  0.5205280450172722  0.9155936717870645  0.7453781620133668  1.0000
  O   O3        1.0  0.07849205371803691  0.9060576002993912  0.5186158201831859  1.0000
  O   O4        1.0  0.22770756817772053  0.4931425731629133  0.6105409497395158  1.0000
  O   O5        1.0  0.9969117981381714  0.29145253263413906  0.31904084980487823  1.0000
  O   O6        1.0  0.23355608867132105  0.8734055975219235  0.8978100121021271  1.0000
  O   O7        1.0  0.7828778772382066  0.8517259277869016  0.422082555713132  1.0000
  O   O8        1.0  0.5146004861453548  0.6449854385573417  0.8914717747829854  1.0000
  O   O9        1.0  0.2672265326837078  0.392842342145741  0.2744869936723262  1.0000
  O   O10       1.0  0.2601910936900822  0.8674009351525456  0.23989715287461877  1.0000
  F   F1        1.0  0.9658881239593029  0.7997819129377604  0.1846809509152081  1.0000
  F   F2        1.0  0.6565414486685768  0.6768497191369534  0.5110400831326842  1.0000
data_image152
_chemical_formula_structural       Ca2P2H8O10F2
_chemical_formula_sum              "Ca2 P2 H8 O10 F2"
_cell_length_a       8.748547242261026
_cell_length_b       6.5292717768421165
_cell_length_c       5.804229554730758
_cell_angle_alpha    118.85637513684739
_cell_angle_beta     110.64940913561757
_cell_angle_gamma    94.26336680621436

_space_group_name_H-M_alt    "P 1"
_space_group_IT_number       1

loop_
  _space_group_symop_operation_xyz
  'x, y, z'

loop_
  _atom_site_type_symbol
  _atom_site_label
  _atom_site_symmetry_multiplicity
  _atom_site_fract_x
  _atom_site_fract_y
  _atom_site_fract_z
  _atom_site_occupancy
  Ca  Ca1       1.0  0.49053563363850117  0.36435831896960735  0.5294049419462681  1.0000
  Ca  Ca2       1.0  0.23495112685486674  0.3500171788036823  0.12199696525931358  1.0000
  P   P1        1.0  0.8185268323868513  0.23358301538974047  0.6957932990044355  1.0000
  P   P2        1.0  0.048226891085505486  0.8597639896906912  0.513206718955189  1.0000
  H   H1        1.0  0.4474463658989407  0.793703312985599  0.4937815690645948  1.0000
  H   H2        1.0  0.6587483681505546  0.14774569775909185  0.12161719799041748  1.0000
  H   H3        1.0  0.11438180605182424  0.4380363039672375  0.4675673898309469  1.0000
  H   H4        1.0  0.19948484748601913  0.8186372984200716  0.2560229077935219  1.0000
  H   H5        1.0  0.489860313013196  0.03833507001399994  0.5325393155217171  1.0000
  H   H6        1.0  0.9671373419696465  0.8262993837706745  0.6458676606416702  1.0000
  H   H7        1.0  0.6699582459405065  0.09429704770445824  0.7148857889696956  1.0000
  H   H8        1.0  0.2240719001274556  0.0617150142788887  0.7806730791926384  1.0000
  O   O1        1.0  0.4510346669703722  0.32794864986499306  0.05871619004756212  1.0000
  O   O2        1.0  0.845937760459492  0.13217026479833294  0.33254900481551886  1.0000
  O   O3        1.0  0.5482396391798829  0.11253504236628942  0.20306153339333832  1.0000
  O   O4        1.0  0.84140209123143  0.06687307031825185  0.6097960071638227  1.0000
  O   O5        1.0  0.84765709284693  0.09704200690612197  0.5539587331004441  1.0000
  O   O6        1.0  0.29677170858485624  0.5536171124549583  0.6325052020838484  1.0000
  O   O7        1.0  0.45340562489582226  0.9203714379109442  0.19126164610497653  1.0000
  O   O8        1.0  0.03193087375257164  0.18259196588769555  0.7449480509385467  1.0000
  O   O9        1.0  0.21321794239338487  0.1585835567675531  0.43506741523742676  1.0000
  O   O10       1.0  0.5880928595834121  0.08548820624127984  0.41582967853173614  1.0000
  F   F1        1.0  0.9387371512129903  0.951500391587615  0.13843148879823275  1.0000
  F   F2        1.0  0.5502243953524157  0.9425353910773993  0.7530524851754308  1.0000
data_image153
_chemical_formula_structural       Ca2P2H8O10F2
_chemical_formula_sum              "Ca2 P2 H8 O10 F2"
_cell_length_a       8.748547242261026
_cell_length_b       6.5292717768421165
_cell_length_c       5.804229554730758
_cell_angle_alpha    118.85637513684739
_cell_angle_beta     110.64940913561757
_cell_angle_gamma    94.26336680621436

_space_group_name_H-M_alt    "P 1"
_space_group_IT_number       1

loop_
  _space_group_symop_operation_xyz
  'x, y, z'

loop_
  _atom_site_type_symbol
  _atom_site_label
  _atom_site_symmetry_multiplicity
  _atom_site_fract_x
  _atom_site_fract_y
  _atom_site_fract_z
  _atom_site_occupancy
  Ca  Ca1       1.0  0.7252211477607489  0.7663346901535988  0.10313268192112446  1.0000
  Ca  Ca2       1.0  0.7917338134720922  0.7126044910401106  0.46368288435041904  1.0000
  P   P1        1.0  0.27578875375911593  0.36884659714996815  0.1447360459715128  1.0000
  P   P2        1.0  0.3717897664755583  0.47116261671180837  0.7835389827378094  1.0000
  H   H1        1.0  0.47403706394834444  0.6782449241727591  0.7837194927269593  1.0000
  H   H2        1.0  0.36481883423402905  0.39789133705198765  0.9215530874207616  1.0000
  H   H3        1.0  0.4726455266645644  0.8738770270720124  0.8827842250466347  1.0000
  H   H4        1.0  0.03661661455407739  0.7302567579317838  0.40004669059999287  1.0000
  H   H5        1.0  0.8644436411559582  0.808534599840641  0.29596974700689316  1.0000
  H   H6        1.0  0.55032044777181  0.09894396178424358  0.85278360825032  1.0000
  H   H7        1.0  0.7080718483775854  0.9404868483543396  0.5056183319538832  1.0000
  H   H8        1.0  0.6034462044481188  0.5052974345162511  0.054475072771310806  1.0000
  O   O1        1.0  0.9528783819405362  0.5169932938733837  0.057570873061195016  1.0000
  O   O2        1.0  0.30213981101405807  0.49659034681826597  0.534761201357469  1.0000
  O   O3        1.0  0.13098509702922456  0.28075731271928817  0.12103205895982683  1.0000
  O   O4        1.0  0.9298573105188552  0.554651100654155  0.6382448370568454  1.0000
  O   O5        1.0  0.8358152126893401  0.0748140444047749  0.351237409748137  1.0000
  O   O6        1.0  0.0771920324768871  0.26520268933381885  0.7984558654716238  1.0000
  O   O7        1.0  0.8672125979792327  0.14702972257509828  0.9940588313620538  1.0000
  O   O8        1.0  0.9742279730271548  0.4543407189194113  0.31870984472334385  1.0000
  O   O9        1.0  0.4248850627336651  0.09778965776786208  0.8164629116654396  1.0000
  O   O10       1.0  0.9458672080254473  0.9291478965897113  0.893096296582371  1.0000
  F   F1        1.0  0.5621563224121928  0.6483251545578241  0.6858374250587076  1.0000
  F   F2        1.0  0.8131348452297971  0.8325282819569111  0.5223314641043544  1.0000
data_image154
_chemical_formula_structural       Ca2P2H8O10F2
_chemical_formula_sum              "Ca2 P2 H8 O10 F2"
_cell_length_a       8.748547242261026
_cell_length_b       6.5292717768421165
_cell_length_c       5.804229554730758
_cell_angle_alpha    118.85637513684739
_cell_angle_beta     110.64940913561757
_cell_angle_gamma    94.26336680621436

_space_group_name_H-M_alt    "P 1"
_space_group_IT_number       1

loop_
  _space_group_symop_operation_xyz
  'x, y, z'

loop_
  _atom_site_type_symbol
  _atom_site_label
  _atom_site_symmetry_multiplicity
  _atom_site_fract_x
  _atom_site_fract_y
  _atom_site_fract_z
  _atom_site_occupancy
  Ca  Ca1       1.0  0.9915588013827801  0.07423990964889526  0.18859180714935064  1.0000
  Ca  Ca2       1.0  0.1416924581862986  0.1265523973852396  0.13816033210605383  1.0000
  P   P1        1.0  0.5950655154883862  0.6024498119950294  0.44224068336188793  1.0000
  P   P2        1.0  0.5470538372173905  0.9578846326039638  0.5177085988689214  1.0000
  H   H1        1.0  0.4497930545476265  0.2299950635060668  0.019479406881146133  1.0000
  H   H2        1.0  0.6723989323945716  0.3379540601745248  0.7829593354836106  1.0000
  H   H3        1.0  0.05448642949340865  0.8814122090116143  0.3328265454620123  1.0000
  H   H4        1.0  0.08928366983309388  0.23301376309245825  0.38725953409448266  1.0000
  H   H5        1.0  0.8629192691296339  0.7322096452116966  0.7981546372175217  1.0000
  H   H6        1.0  0.01147596724331379  0.16535661974921823  0.8864296628162265  1.0000
  H   H7        1.0  0.15988080576062202  0.6189044527709484  0.7632322078570724  1.0000
  H   H8        1.0  0.3959707785397768  0.6043016947805882  0.6990305408835411  1.0000
  O   O1        1.0  0.47329525963868946  0.8164491318602813  0.7777629778720438  1.0000
  O   O2        1.0  0.5172357541014208  0.18537795569864102  0.11681520118145272  1.0000
  O   O3        1.0  0.3937336036397028  0.9831394006787377  0.9987536486878525  1.0000
  O   O4        1.0  0.19267827970907092  0.16859172424301505  0.5535249221138656  1.0000
  O   O5        1.0  0.5975974020548165  0.6688140323385596  0.5185948750004172  1.0000
  O   O6        1.0  0.4553019954182673  0.8443664936348796  0.37003595218993723  1.0000
  O   O7        1.0  0.8841698914766312  0.8696597430389374  0.28239905508235097  1.0000
  O   O8        1.0  0.8579005558276549  0.7158708274364471  0.12077660905197263  1.0000
  O   O9        1.0  0.06003150070318952  0.07774317916482687  0.09183028968982399  1.0000
  O   O10       1.0  0.7317181503312895  0.15183552843518555  0.34889044845476747  1.0000
  F   F1        1.0  0.8902473971247673  0.895797373726964  0.05844760895706713  1.0000
  F   F2        1.0  0.659187882905826  0.9231528751552105  0.5217696335166693  1.0000
data_image155
_chemical_formula_structural       Ca2P2H8O10F2
_chemical_formula_sum              "Ca2 P2 H8 O10 F2"
_cell_length_a       8.748547242261026
_cell_length_b       6.5292717768421165
_cell_length_c       5.804229554730758
_cell_angle_alpha    118.85637513684739
_cell_angle_beta     110.64940913561757
_cell_angle_gamma    94.26336680621436

_space_group_name_H-M_alt    "P 1"
_space_group_IT_number       1

loop_
  _space_group_symop_operation_xyz
  'x, y, z'

loop_
  _atom_site_type_symbol
  _atom_site_label
  _atom_site_symmetry_multiplicity
  _atom_site_fract_x
  _atom_site_fract_y
  _atom_site_fract_z
  _atom_site_occupancy
  Ca  Ca1       1.0  0.4092832822352648  0.27156905457377434  0.5106159755960107  1.0000
  Ca  Ca2       1.0  0.17959990398958325  0.5432045720517635  0.46422178391367197  1.0000
  P   P1        1.0  0.7110174614936113  0.04578864388167858  0.8670120816677809  1.0000
  P   P2        1.0  0.4614779371768236  0.7587667508341838  0.4632612313143909  1.0000
  H   H1        1.0  0.5029657806153409  0.7754972977563739  0.065113389340695  1.0000
  H   H2        1.0  0.925294463057071  0.49511867482215166  0.39766643196344376  1.0000
  H   H3        1.0  0.7969607406994328  0.34221239387989044  0.4358784332871437  1.0000
  H   H4        1.0  0.2435397137887776  0.054454315919429064  0.7631611751858145  1.0000
  H   H5        1.0  0.5727420877665281  0.33749233186244965  0.29823674261569977  1.0000
  H   H6        1.0  0.16285507765132934  0.6990001779049635  0.19461131002753973  1.0000
  H   H7        1.0  0.797091600485146  0.09295154362916946  0.7882240284234285  1.0000
  H   H8        1.0  0.12299459683708847  0.9868844179436564  0.681381668895483  1.0000
  O   O1        1.0  0.12473615608178079  0.41815006505930796  0.9684226361569017  1.0000
  O   O2        1.0  0.37504628059105016  0.647887573762091  0.9927171772578731  1.0000
  O   O3        1.0  0.9502732983964961  0.49592786285256807  0.5830229112834786  1.0000
  O   O4        1.0  0.35582594366860576  0.6770631507970393  0.7901440784335136  1.0000
  O   O5        1.0  0.4844816569238901  0.7865310269407928  0.4954060078598559  1.0000
  O   O6        1.0  0.04442573364940472  0.565783727215603  0.3154301039176062  1.0000
  O   O7        1.0  0.5052273419569246  0.9791790382005274  0.9591029384173453  1.0000
  O   O8        1.0  0.24956902780104429  0.19139493955299258  0.5284170941449702  1.0000
  O   O9        1.0  0.9730211549322121  0.7563359839841723  0.7271236290689558  1.0000
  O   O10       1.0  0.6104344070481602  0.8282689834013581  0.6831989441998303  1.0000
  F   F1        1.0  0.6578295957297087  0.6948096137493849  0.3836286818841472  1.0000
  F   F2        1.0  0.08701153856236488  0.35559431463479996  0.9415978891775012  1.0000
data_image156
_chemical_formula_structural       Ca2P2H8O10F2
_chemical_formula_sum              "Ca2 P2 H8 O10 F2"
_cell_length_a       8.748547242261026
_cell_length_b       6.5292717768421165
_cell_length_c       5.804229554730758
_cell_angle_alpha    118.85637513684739
_cell_angle_beta     110.64940913561757
_cell_angle_gamma    94.26336680621436

_space_group_name_H-M_alt    "P 1"
_space_group_IT_number       1

loop_
  _space_group_symop_operation_xyz
  'x, y, z'

loop_
  _atom_site_type_symbol
  _atom_site_label
  _atom_site_symmetry_multiplicity
  _atom_site_fract_x
  _atom_site_fract_y
  _atom_site_fract_z
  _atom_site_occupancy
  Ca  Ca1       1.0  0.7751268828287721  0.736992858350277  0.3812345275655389  1.0000
  Ca  Ca2       1.0  0.4362871842458844  0.5486687999218702  0.6257797358557582  1.0000
  P   P1        1.0  0.18164207693189383  0.22468525916337967  0.11886663921177387  1.0000
  P   P2        1.0  0.4601345853880048  0.6206479049287736  0.040331312688067555  1.0000
  H   H1        1.0  0.009723671828396618  0.5147820916026831  0.5995678617618978  1.0000
  H   H2        1.0  0.6218971138587222  0.4100442174822092  0.9541840013116598  1.0000
  H   H3        1.0  0.5740778842882719  0.47272009029984474  0.974088653922081  1.0000
  H   H4        1.0  0.2832807875238359  0.575497173005715  0.5653508466202766  1.0000
  H   H5        1.0  0.9481811188161373  0.8107990100979805  0.09781660884618759  1.0000
  H   H6        1.0  0.29978303285315633  0.8726154724135995  0.5951229287311435  1.0000
  H   H7        1.0  0.31493208184838295  0.20290854200720787  0.11462343018501997  1.0000
  H   H8        1.0  0.026234734570607543  0.03730313014239073  0.46153477765619755  1.0000
  O   O1        1.0  0.11374725203495473  0.8845923447661335  0.7720743031241  1.0000
  O   O2        1.0  0.7859280089105596  0.5317201709458459  0.1673157854238525  1.0000
  O   O3        1.0  0.7960077981260838  0.4146013484823925  0.08208546716377896  1.0000
  O   O4        1.0  0.14416073137545027  0.47878054715692997  0.07226808788254857  1.0000
  O   O5        1.0  0.4367444673553109  0.07259526336565614  0.5875246869400144  1.0000
  O   O6        1.0  0.60923739822465  0.5072391332359985  0.4709586581448093  1.0000
  O   O7        1.0  0.7227287357090972  0.17657910170964897  0.30198756442405283  1.0000
  O   O8        1.0  0.831941886455752  0.5928776848595589  0.5420405785553157  1.0000
  O   O9        1.0  0.11891148990252987  0.9670591498725116  0.9344289558939636  1.0000
  O   O10       1.0  0.18969910265877843  0.17672463436610997  0.06317929178476334  1.0000
  F   F1        1.0  0.8862894307821989  0.534336943179369  0.7797597002936527  1.0000
  F   F2        1.0  0.010970221948809922  0.27424006909132004  0.3558677788823843  1.0000
data_image157
_chemical_formula_structural       Ca2P2H8O10F2
_chemical_formula_sum              "Ca2 P2 H8 O10 F2"
_cell_length_a       8.748547242261026
_cell_length_b       6.5292717768421165
_cell_length_c       5.804229554730758
_cell_angle_alpha    118.85637513684739
_cell_angle_beta     110.64940913561757
_cell_angle_gamma    94.26336680621436

_space_group_name_H-M_alt    "P 1"
_space_group_IT_number       1

loop_
  _space_group_symop_operation_xyz
  'x, y, z'

loop_
  _atom_site_type_symbol
  _atom_site_label
  _atom_site_symmetry_multiplicity
  _atom_site_fract_x
  _atom_site_fract_y
  _atom_site_fract_z
  _atom_site_occupancy
  Ca  Ca1       1.0  0.7268365612253547  0.5272638667374849  0.5755081046372652  1.0000
  Ca  Ca2       1.0  0.4728515213355422  0.6799002774059772  0.13435610476881266  1.0000
  P   P1        1.0  0.2492525028064847  0.578534328378737  0.3042832389473915  1.0000
  P   P2        1.0  0.12992614787071943  0.25820921623380855  0.18232851149514318  1.0000
  H   H1        1.0  0.2023589030141011  0.11580823827534914  0.9367946845013648  1.0000
  H   H2        1.0  0.16863009752705693  0.3115320270881057  0.17736934032291174  1.0000
  H   H3        1.0  0.7218620380735956  0.8664036048576236  0.8055609352886677  1.0000
  H   H4        1.0  0.4681004546582699  0.9289996109437197  0.1805746271274984  1.0000
  H   H5        1.0  0.47098482586443424  0.5068859681487083  0.876339390873909  1.0000
  H   H6        1.0  0.5011335201561451  0.6237057275138795  0.1615836787968874  1.0000
  H   H7        1.0  0.943191415630281  0.27771083638072014  0.6229157783091068  1.0000
  H   H8        1.0  0.69275061506778  0.12435070984065533  0.08213552832603455  1.0000
  O   O1        1.0  0.601593901636079  0.7720430046319962  0.3221635026857257  1.0000
  O   O2        1.0  0.0776355753550888  0.7271799391019158  0.7033906014985405  1.0000
  O   O3        1.0  0.9946791751426645  0.021529426892811898  0.7844014679540123  1.0000
  O   O4        1.0  0.8594697391672526  0.8443329562433064  0.26514157140627503  1.0000
  O   O5        1.0  0.5147836548276246  0.30034840293228626  0.9101618605200201  1.0000
  O   O6        1.0  0.9546274639724288  0.8552049965364859  0.16847113880794495  1.0000
  O   O7        1.0  0.8618970008101314  0.00724577740766108  0.25220475741662085  1.0000
  O   O8        1.0  0.7475749898003414  0.581190986558795  0.3681102409027517  1.0000
  O   O9        1.0  0.48771492909872904  0.131475736387074  0.5577153705526143  1.0000
  O   O10       1.0  0.4898163804609794  0.6223630518652499  0.7751671043224633  1.0000
  F   F1        1.0  0.39677854999899864  0.9572138339281082  0.17803568090312183  1.0000
  F   F2        1.0  0.5985992454225197  0.560357240960002  0.2190709449350834  1.0000
data_image158
_chemical_formula_structural       Ca2P2H8O10F2
_chemical_formula_sum              "Ca2 P2 H8 O10 F2"
_cell_length_a       8.748547242261026
_cell_length_b       6.5292717768421165
_cell_length_c       5.804229554730758
_cell_angle_alpha    118.85637513684739
_cell_angle_beta     110.64940913561757
_cell_angle_gamma    94.26336680621436

_space_group_name_H-M_alt    "P 1"
_space_group_IT_number       1

loop_
  _space_group_symop_operation_xyz
  'x, y, z'

loop_
  _atom_site_type_symbol
  _atom_site_label
  _atom_site_symmetry_multiplicity
  _atom_site_fract_x
  _atom_site_fract_y
  _atom_site_fract_z
  _atom_site_occupancy
  Ca  Ca1       1.0  0.21973364800214767  0.4493742696940899  0.05385085009038448  1.0000
  Ca  Ca2       1.0  0.835742827039212  0.9345658533275127  0.39510191325098276  1.0000
  P   P1        1.0  0.1742094368673861  0.22487699054181576  0.4887697510421276  1.0000
  P   P2        1.0  0.2628790894523263  0.5830506109632552  0.44415417360141873  1.0000
  H   H1        1.0  0.28260193139431067  0.47432282846421003  0.638475225889124  1.0000
  H   H2        1.0  0.0988267408683896  0.8660729490220547  0.11470769438892603  1.0000
  H   H3        1.0  0.04582417479832657  0.19682548753917217  0.8687332402914762  1.0000
  H   H4        1.0  0.8430584101006389  0.8499547312967479  0.6923438147641718  1.0000
  H   H5        1.0  0.12951521202921867  0.030313529074192047  0.29581571370363235  1.0000
  H   H6        1.0  0.7905523349763826  0.43682992132380605  0.7766385758295655  1.0000
  H   H7        1.0  0.8729732148349285  0.36168073117733  0.8681245530024171  1.0000
  H   H8        1.0  0.20008289557881653  0.5069010490551591  0.2741923201829195  1.0000
  O   O1        1.0  0.7658889620797709  0.8588491866976256  0.8680170883890241  1.0000
  O   O2        1.0  0.5651455205079401  0.5815989814145723  0.353775614319602  1.0000
  O   O3        1.0  0.6674248971394263  0.698776662417913  0.2477594138290442  1.0000
  O   O4        1.0  0.9300373603182379  0.5235180384479463  0.579616452101618  1.0000
  O   O5        1.0  0.28320956276729703  0.7687334953807294  0.9091162246186286  1.0000
  O   O6        1.0  0.25402718590339646  0.4362064340384677  0.4570586046902463  1.0000
  O   O7        1.0  0.2519554483005777  0.3474805289879441  0.7975328522734344  1.0000
  O   O8        1.0  0.12034367129672319  0.5689893250819296  0.14767808839678764  1.0000
  O   O9        1.0  0.7997078989283182  0.611341659212485  0.17170209344476461  1.0000
  O   O10       1.0  0.32889658186468296  0.2648083162494004  0.8923564185388386  1.0000
  F   F1        1.0  0.6872332273051143  0.42212796583771706  0.2161991676548496  1.0000
  F   F2        1.0  0.4018125726142898  0.08669745922088623  0.06932454742491245  1.0000
data_image159
_chemical_formula_structural       Ca2P2H8O10F2
_chemical_formula_sum              "Ca2 P2 H8 O10 F2"
_cell_length_a       8.748547242261026
_cell_length_b       6.5292717768421165
_cell_length_c       5.804229554730758
_cell_angle_alpha    118.85637513684739
_cell_angle_beta     110.64940913561757
_cell_angle_gamma    94.26336680621436

_space_group_name_H-M_alt    "P 1"
_space_group_IT_number       1

loop_
  _space_group_symop_operation_xyz
  'x, y, z'

loop_
  _atom_site_type_symbol
  _atom_site_label
  _atom_site_symmetry_multiplicity
  _atom_site_fract_x
  _atom_site_fract_y
  _atom_site_fract_z
  _atom_site_occupancy
  Ca  Ca1       1.0  0.77960938308388  0.3058839589357376  0.24531439691781998  1.0000
  Ca  Ca2       1.0  0.575823896098882  0.004031689837574959  0.8126120772212744  1.0000
  P   P1        1.0  0.6566344811581075  0.2956213131546974  0.5437158904969692  1.0000
  P   P2        1.0  0.9593697274103761  0.18357540434226394  0.5443811772856861  1.0000
  H   H1        1.0  0.24169730162248015  0.0699772210791707  0.5613666620338336  1.0000
  H   H2        1.0  0.7579940757714212  0.5252851760014892  0.9006554251536727  1.0000
  H   H3        1.0  0.8716648284171242  0.8302269075065851  0.503181803971529  1.0000
  H   H4        1.0  0.12222781404852867  0.517600235529244  0.4656229882966727  1.0000
  H   H5        1.0  0.30471375957131386  0.3078256696462631  0.47969914972782135  1.0000
  H   H6        1.0  0.8125367051688954  0.18813036056235433  0.2357987156137824  1.0000
  H   H7        1.0  0.2950338637456298  0.6298114359378815  0.44283858593553305  1.0000
  H   H8        1.0  0.720912876073271  0.9904917208477855  0.2508956454694271  1.0000
  O   O1        1.0  0.12186019169166684  0.09435265584033914  0.5212588435970247  1.0000
  O   O2        1.0  0.3307665436223033  0.6130370775172196  0.9944687854731455  1.0000
  O   O3        1.0  0.5019110336870654  0.5974391101945002  0.9105691199656576  1.0000
  O   O4        1.0  0.46045918893651105  0.9648214029148221  0.767972988076508  1.0000
  O   O5        1.0  0.25809595454484224  0.3336040270514786  0.0882467832416296  1.0000
  O   O6        1.0  0.7814702081668656  0.9878994473256171  0.16200036671943963  1.0000
  O   O7        1.0  0.528356046997942  0.8298333969432861  0.6242843072395772  1.0000
  O   O8        1.0  0.22684255486819893  0.18937344709411263  0.04677335638552904  1.0000
  O   O9        1.0  0.7515661646611989  0.21143450308591127  0.93108259444125  1.0000
  O   O10       1.0  0.37991665897425264  0.2721487416420132  0.15592357330024242  1.0000
  F   F1        1.0  0.580290344543755  0.09464466199278831  0.08923001505900174  1.0000
  F   F2        1.0  0.7368572348495945  0.8574403449892998  0.9275883566588163  1.0000
data_image160
_chemical_formula_structural       Ca2P2H8O10F2
_chemical_formula_sum              "Ca2 P2 H8 O10 F2"
_cell_length_a       8.748547242261026
_cell_length_b       6.5292717768421165
_cell_length_c       5.804229554730758
_cell_angle_alpha    118.85637513684739
_cell_angle_beta     110.64940913561757
_cell_angle_gamma    94.26336680621436

_space_group_name_H-M_alt    "P 1"
_space_group_IT_number       1

loop_
  _space_group_symop_operation_xyz
  'x, y, z'

loop_
  _atom_site_type_symbol
  _atom_site_label
  _atom_site_symmetry_multiplicity
  _atom_site_fract_x
  _atom_site_fract_y
  _atom_site_fract_z
  _atom_site_occupancy
  Ca  Ca1       1.0  0.272845720872283  0.5374337658286095  0.9574773600324988  1.0000
  Ca  Ca2       1.0  0.04527234099805355  0.14033510722219944  0.20990171004086733  1.0000
  P   P1        1.0  0.4637344544753432  0.9968386692926288  0.33313016779720783  1.0000
  P   P2        1.0  0.8020196855068207  0.15910591883584857  0.08857416780665517  1.0000
  H   H1        1.0  0.3498535605613142  0.3096721777692437  0.041665850672870874  1.0000
  H   H2        1.0  0.34261973365209997  0.19282545614987612  0.4756760597229004  1.0000
  H   H3        1.0  0.3393157073878683  0.5548161482438445  0.9401811305433512  1.0000
  H   H4        1.0  0.017504969611763954  0.20997496345080435  0.9151688346173614  1.0000
  H   H5        1.0  0.8910819478332996  0.20040090382099152  0.7860606014728546  1.0000
  H   H6        1.0  0.7699112489353865  0.03628441318869591  0.562418662942946  1.0000
  H   H7        1.0  0.032004214823246  0.811736024916172  0.6560511728748679  1.0000
  H   H8        1.0  0.268282538279891  0.24371393863111734  0.004287393763661385  1.0000
  O   O1        1.0  0.903826748370193  0.6859459513361799  0.954830139875412  1.0000
  O   O2        1.0  0.2939154505584156  0.7594420479217661  0.6367419252055697  1.0000
  O   O3        1.0  0.6312432721169898  0.04080600989402683  0.23253209635731764  1.0000
  O   O4        1.0  0.807220438378863  0.1813233974389732  0.40024976525455713  1.0000
  O   O5        1.0  0.7859402564354241  0.921039670240134  0.22980962484143674  1.0000
  O   O6        1.0  0.5323232536320575  0.7474990813061595  0.8782748315716162  1.0000
  O   O7        1.0  0.515944610175211  0.7719132471829653  0.1470685803797096  1.0000
  O   O8        1.0  0.036924195010215044  0.8509573489427567  0.009943515062332153  1.0000
  O   O9        1.0  0.3036336152581498  0.6103483797051013  0.26338299084454775  1.0000
  O   O10       1.0  0.29002014352590777  0.7770853398833424  0.7855109958909452  1.0000
  F   F1        1.0  0.05849728174507618  0.7034896146506071  0.24033125990536064  1.0000
  F   F2        1.0  0.07786942843813449  0.6540100555866957  0.9536049477756023  1.0000
data_image161
_chemical_formula_structural       Ca2P2H8O10F2
_chemical_formula_sum              "Ca2 P2 H8 O10 F2"
_cell_length_a       8.748547242261026
_cell_length_b       6.5292717768421165
_cell_length_c       5.804229554730758
_cell_angle_alpha    118.85637513684739
_cell_angle_beta     110.64940913561757
_cell_angle_gamma    94.26336680621436

_space_group_name_H-M_alt    "P 1"
_space_group_IT_number       1

loop_
  _space_group_symop_operation_xyz
  'x, y, z'

loop_
  _atom_site_type_symbol
  _atom_site_label
  _atom_site_symmetry_multiplicity
  _atom_site_fract_x
  _atom_site_fract_y
  _atom_site_fract_z
  _atom_site_occupancy
  Ca  Ca1       1.0  0.3640559036284685  0.8877466339617968  0.48442412819713354  1.0000
  Ca  Ca2       1.0  0.7204048144631088  0.6372013166546822  0.22975431475788355  1.0000
  P   P1        1.0  0.20389833580702543  0.33724207524210215  0.3818680066615343  1.0000
  P   P2        1.0  0.17400594614446163  0.8598574139759876  0.2910789642482996  1.0000
  H   H1        1.0  0.9244389693485573  0.11342536937445402  0.723544045467861  1.0000
  H   H2        1.0  0.6896493921522051  0.044971552677452564  0.47207622323185205  1.0000
  H   H3        1.0  0.23455306375399232  0.15693509858101606  0.5479998476803303  1.0000
  H   H4        1.0  0.3745261370204389  0.8832551776431501  0.6805489165708423  1.0000
  H   H5        1.0  0.9461251441389322  0.3875466138124466  0.551517553627491  1.0000
  H   H6        1.0  0.2160928340163082  0.43279368057847023  0.7196426000446081  1.0000
  H   H7        1.0  0.08761200588196516  0.33411525189876556  0.645381011068821  1.0000
  H   H8        1.0  0.41763590439222753  0.6795211546123028  0.16486388258635998  1.0000
  O   O1        1.0  0.4154712394811213  0.4232548327272525  0.19180618249811232  1.0000
  O   O2        1.0  0.9936930478506838  0.8387167631481134  0.6228217886236962  1.0000
  O   O3        1.0  0.4431415901344735  0.14144814953465357  0.6705137305470998  1.0000
  O   O4        1.0  0.3343354419339448  0.390373844653368  0.3944335486739874  1.0000
  O   O5        1.0  0.2253794358111918  0.7323364415206015  0.3625939164776355  1.0000
  O   O6        1.0  0.5604765959142242  0.45672708470374346  0.6850562350591645  1.0000
  O   O7        1.0  0.713387611147482  0.420003259787336  0.29406037204898894  1.0000
  O   O8        1.0  0.7610789794707671  0.618715378921479  0.5551128899678588  1.0000
  O   O9        1.0  0.3009691737825051  0.044418975012376904  0.7288754303008318  1.0000
  O   O10       1.0  0.03804028368904255  0.782110164873302  0.40023723104968667  1.0000
  F   F1        1.0  0.2823584424331784  0.7031730823218822  0.12390052841510624  1.0000
  F   F2        1.0  0.8823789779562503  0.22753682732582092  0.6543418075889349  1.0000
data_image162
_chemical_formula_structural       Ca2P2H8O10F2
_chemical_formula_sum              "Ca2 P2 H8 O10 F2"
_cell_length_a       8.748547242261026
_cell_length_b       6.5292717768421165
_cell_length_c       5.804229554730758
_cell_angle_alpha    118.85637513684739
_cell_angle_beta     110.64940913561757
_cell_angle_gamma    94.26336680621436

_space_group_name_H-M_alt    "P 1"
_space_group_IT_number       1

loop_
  _space_group_symop_operation_xyz
  'x, y, z'

loop_
  _atom_site_type_symbol
  _atom_site_label
  _atom_site_symmetry_multiplicity
  _atom_site_fract_x
  _atom_site_fract_y
  _atom_site_fract_z
  _atom_site_occupancy
  Ca  Ca1       1.0  0.8757650731131434  0.9502852018922567  0.4094703570008278  1.0000
  Ca  Ca2       1.0  0.2617986421100795  0.4476519413292408  0.3432054156437516  1.0000
  P   P1        1.0  0.7185995299369097  0.4306442867964506  0.09145514853298664  1.0000
  P   P2        1.0  0.5720478743314743  0.9878000434837304  0.499082013964653  1.0000
  H   H1        1.0  0.9269942099926993  0.13102793041616678  0.9658107641153038  1.0000
  H   H2        1.0  0.6678491666680202  0.6650528917089105  0.3867433983832598  1.0000
  H   H3        1.0  0.9797884560466628  0.5975958351045847  0.6463416758924723  1.0000
  H   H4        1.0  0.8488986943848431  0.6500213209073991  0.6814855011180043  1.0000
  H   H5        1.0  0.6703557688742876  0.29141952842473984  0.6778209507465363  1.0000
  H   H6        1.0  0.9514381462940946  0.05517370766028762  0.8719025198370218  1.0000
  H   H7        1.0  0.5552781047299504  0.05851263552904129  0.8335525123402476  1.0000
  H   H8        1.0  0.4978893375955522  0.2096437094733119  0.6241859961301088  1.0000
  O   O1        1.0  0.8355884641641751  0.5699809514917433  0.7370520995464176  1.0000
  O   O2        1.0  0.9655518612926244  0.001780213806341635  0.5047527009737678  1.0000
  O   O3        1.0  0.5733822204201715  0.049073909227445256  0.19757494700752432  1.0000
  O   O4        1.0  0.8931865787890274  0.8909480525180697  0.1735273515805602  1.0000
  O   O5        1.0  0.6771108093671501  0.23479989543557167  0.6902692744042724  1.0000
  O   O6        1.0  0.08177384117152542  0.6539095889311284  0.4251703176414594  1.0000
  O   O7        1.0  0.5680894286488183  0.3788935977499932  0.687836040277034  1.0000
  O   O8        1.0  0.1913646887987852  0.6442053273785859  0.8216932038776577  1.0000
  O   O9        1.0  0.7186890633311123  0.28529616724699736  0.30435329861938953  1.0000
  O   O10       1.0  0.6076311877113767  0.3848066506907344  0.6804776163771749  1.0000
  F   F1        1.0  0.6328163798898458  0.8926174826920033  0.03735331550706178  1.0000
  F   F2        1.0  0.8811812836211175  0.08241388574242592  0.5635180324316025  1.0000
data_image163
_chemical_formula_structural       Ca2P2H8O10F2
_chemical_formula_sum              "Ca2 P2 H8 O10 F2"
_cell_length_a       8.748547242261026
_cell_length_b       6.5292717768421165
_cell_length_c       5.804229554730758
_cell_angle_alpha    118.85637513684739
_cell_angle_beta     110.64940913561757
_cell_angle_gamma    94.26336680621436

_space_group_name_H-M_alt    "P 1"
_space_group_IT_number       1

loop_
  _space_group_symop_operation_xyz
  'x, y, z'

loop_
  _atom_site_type_symbol
  _atom_site_label
  _atom_site_symmetry_multiplicity
  _atom_site_fract_x
  _atom_site_fract_y
  _atom_site_fract_z
  _atom_site_occupancy
  Ca  Ca1       1.0  0.6235284442082047  0.13416417501866817  0.0906419325619936  1.0000
  Ca  Ca2       1.0  0.31486405432224274  0.15512718074023724  0.59766317717731  1.0000
  P   P1        1.0  0.5727077606134117  0.3798042880371213  0.3353027533739805  1.0000
  P   P2        1.0  0.6633489681407809  0.8266761640552431  0.06184855615720153  1.0000
  H   H1        1.0  0.8198330943705514  0.4836469991132617  0.826386672211811  1.0000
  H   H2        1.0  0.25340906251221895  0.8082567946985364  0.2426018211990595  1.0000
  H   H3        1.0  0.9282616625587252  0.09315044712275267  0.5016977209597826  1.0000
  H   H4        1.0  0.12152644898742437  0.52888836665079  0.21777975326403975  1.0000
  H   H5        1.0  0.7106798868626356  0.5837183222174644  0.037333570420742035  1.0000
  H   H6        1.0  0.4013376586372033  0.39176765317097306  0.7646381175145507  1.0000
  H   H7        1.0  0.7223857771605253  0.7325491383671761  0.5255635846406221  1.0000
  H   H8        1.0  0.8820187149103731  0.48997518606483936  0.9448505938053131  1.0000
  O   O1        1.0  0.474813497508876  0.5295738942659227  0.07416425202973187  1.0000
  O   O2        1.0  0.4919078804523451  0.2638563573073043  0.3657308311376255  1.0000
  O   O3        1.0  0.6415595454745926  0.35722032152989414  0.13446339378424454  1.0000
  O   O4        1.0  0.7441423164564185  0.12806443264707923  0.538405423052609  1.0000
  O   O5        1.0  0.9485768391750753  0.6369040897116065  0.020646171178668737  1.0000
  O   O6        1.0  0.7387990425049793  0.731058758799918  0.9719937749905512  1.0000
  O   O7        1.0  0.11548443435458466  0.07399774226360023  0.5824859195854515  1.0000
  O   O8        1.0  0.7099401321029291  0.9371741195209324  0.8184833405539393  1.0000
  O   O9        1.0  0.4353290662984364  0.859494551550597  0.9524911310290918  1.0000
  O   O10       1.0  0.15390314286923967  0.4268209980800748  0.12615799624472857  1.0000
  F   F1        1.0  0.3105039084330201  0.9112701155245304  0.9724627756513655  1.0000
  F   F2        1.0  0.22727033263072371  0.4487111270427704  0.3915844904258847  1.0000
data_image164
_chemical_formula_structural       Ca2P2H8O10F2
_chemical_formula_sum              "Ca2 P2 H8 O10 F2"
_cell_length_a       8.748547242261026
_cell_length_b       6.5292717768421165
_cell_length_c       5.804229554730758
_cell_angle_alpha    118.85637513684739
_cell_angle_beta     110.64940913561757
_cell_angle_gamma    94.26336680621436

_space_group_name_H-M_alt    "P 1"
_space_group_IT_number       1

loop_
  _space_group_symop_operation_xyz
  'x, y, z'

loop_
  _atom_site_type_symbol
  _atom_site_label
  _atom_site_symmetry_multiplicity
  _atom_site_fract_x
  _atom_site_fract_y
  _atom_site_fract_z
  _atom_site_occupancy
  Ca  Ca1       1.0  0.4958775816485286  0.0541922003030777  0.15014159865677357  1.0000
  Ca  Ca2       1.0  0.9626859580166638  0.43330679275095463  0.00876982044428587  1.0000
  P   P1        1.0  0.5506189037114382  0.48419428803026676  0.05084359832108021  1.0000
  P   P2        1.0  0.6642963504418731  0.7090240810794057  0.2849480577278882  1.0000
  H   H1        1.0  0.7953543465118855  0.6031688377261162  0.8426917934557423  1.0000
  H   H2        1.0  0.22617031901609153  0.9787694690749049  0.7667627716436982  1.0000
  H   H3        1.0  0.5652504088357091  0.14420776814222336  0.9609647914767265  1.0000
  H   H4        1.0  0.6807069852948189  0.9319065038580447  0.9719006582163274  1.0000
  H   H5        1.0  0.5150861460715532  0.38471151143312454  0.32536599040031433  1.0000
  H   H6        1.0  0.04478050069883466  0.6170105994679034  0.8608387671411037  1.0000
  H   H7        1.0  0.8329416131600738  0.7588978745043278  0.1794147128239274  1.0000
  H   H8        1.0  0.48199345590546727  0.724580186419189  0.327610706910491  1.0000
  O   O1        1.0  0.27086197631433606  0.030562847096007317  0.34493554034270346  1.0000
  O   O2        1.0  0.21928038550686324  0.6461559107674475  0.023286635987460613  1.0000
  O   O3        1.0  0.9780021644401131  0.570758564863354  0.2821864632132929  1.0000
  O   O4        1.0  0.917558332439512  0.7871001092717052  0.7811149680055678  1.0000
  O   O5        1.0  0.5887549081817269  0.7986706756055355  0.7862889729440212  1.0000
  O   O6        1.0  0.6746065226034261  0.5934619500185363  0.4109435537829995  1.0000
  O   O7        1.0  0.8489633155986667  0.14549534302204847  0.9946973661426455  1.0000
  O   O8        1.0  0.8065003617666662  0.9487349670380354  0.48020418221130967  1.0000
  O   O9        1.0  0.8082938421866857  0.6651493548415601  0.12369561963714659  1.0000
  O   O10       1.0  0.6777935628342675  0.8037202944979072  0.8965618372894824  1.0000
  F   F1        1.0  0.980250627733767  0.9200553055852652  0.050926075549796224  1.0000
  F   F2        1.0  0.989163558697328  0.7463313955813646  0.49658240750432014  1.0000
data_image165
_chemical_formula_structural       Ca2P2H8O10F2
_chemical_formula_sum              "Ca2 P2 H8 O10 F2"
_cell_length_a       8.748547242261026
_cell_length_b       6.5292717768421165
_cell_length_c       5.804229554730758
_cell_angle_alpha    118.85637513684739
_cell_angle_beta     110.64940913561757
_cell_angle_gamma    94.26336680621436

_space_group_name_H-M_alt    "P 1"
_space_group_IT_number       1

loop_
  _space_group_symop_operation_xyz
  'x, y, z'

loop_
  _atom_site_type_symbol
  _atom_site_label
  _atom_site_symmetry_multiplicity
  _atom_site_fract_x
  _atom_site_fract_y
  _atom_site_fract_z
  _atom_site_occupancy
  Ca  Ca1       1.0  0.1566097168251872  0.22435993142426014  0.7410034984350204  1.0000
  Ca  Ca2       1.0  0.972771821077913  0.06717797368764877  0.09222870320081711  1.0000
  P   P1        1.0  0.40820118272677064  0.17318106070160866  0.1688386332243681  1.0000
  P   P2        1.0  0.7501503778621554  0.672491509874817  0.9650675079319626  1.0000
  H   H1        1.0  0.784303214168176  0.7094117114320397  0.5577597941737622  1.0000
  H   H2        1.0  0.45803665835410357  0.7943486971780658  0.8197535192593932  1.0000
  H   H3        1.0  0.6816833424963988  0.893486863002181  0.3837734144181013  1.0000
  H   H4        1.0  0.011609075590968132  0.8271457350347191  0.270074259955436  1.0000
  H   H5        1.0  0.9262860864400864  0.12277223914861679  0.24653885513544083  1.0000
  H   H6        1.0  0.5007030396955088  0.26186064118519425  0.5717908916994929  1.0000
  H   H7        1.0  0.7335444884374738  0.19919373840093613  0.37468905840069056  1.0000
  H   H8        1.0  0.3760992055758834  0.2783843167126179  0.2238175105303526  1.0000
  O   O1        1.0  0.7878877718467265  0.9496930707100546  0.05161075759679079  1.0000
  O   O2        1.0  0.37166688391153  0.7540217304858743  0.4196737788734026  1.0000
  O   O3        1.0  0.9252917842677562  0.6306029977858998  0.7650226188998204  1.0000
  O   O4        1.0  0.35794504289515316  0.4188066287897527  0.9088534791953862  1.0000
  O   O5        1.0  0.3493176228366792  0.5187222841195762  0.9861817767377943  1.0000
  O   O6        1.0  0.7086493136303034  0.8933516124379821  0.4430710254237056  1.0000
  O   O7        1.0  0.6362295973813161  0.43235925724729896  0.09890601062215865  1.0000
  O   O8        1.0  0.5649868195177987  0.2530377712100744  0.8566114432178438  1.0000
  O   O9        1.0  0.9282432995387353  0.3082267560530454  0.27478366100694984  1.0000
  O   O10       1.0  0.2517595252429601  0.32898446964100003  0.25413481518626213  1.0000
  F   F1        1.0  0.8409113548696041  0.19047639518976212  0.827501711435616  1.0000
  F   F2        1.0  0.6733973951777443  0.574036281555891  0.14648642670363188  1.0000
data_image166
_chemical_formula_structural       Ca2P2H8O10F2
_chemical_formula_sum              "Ca2 P2 H8 O10 F2"
_cell_length_a       8.748547242261026
_cell_length_b       6.5292717768421165
_cell_length_c       5.804229554730758
_cell_angle_alpha    118.85637513684739
_cell_angle_beta     110.64940913561757
_cell_angle_gamma    94.26336680621436

_space_group_name_H-M_alt    "P 1"
_space_group_IT_number       1

loop_
  _space_group_symop_operation_xyz
  'x, y, z'

loop_
  _atom_site_type_symbol
  _atom_site_label
  _atom_site_symmetry_multiplicity
  _atom_site_fract_x
  _atom_site_fract_y
  _atom_site_fract_z
  _atom_site_occupancy
  Ca  Ca1       1.0  0.8763072211295366  0.855102090165019  0.9381805099546909  1.0000
  Ca  Ca2       1.0  0.42697662534192204  0.4407312422990799  0.8471465753391385  1.0000
  P   P1        1.0  0.9543938902206719  0.23032300733029842  0.7287894133478403  1.0000
  P   P2        1.0  0.014378976076841354  0.9062125296331942  0.6027835397981107  1.0000
  H   H1        1.0  0.08164875535294414  0.42756140418350697  0.613323956145905  1.0000
  H   H2        1.0  0.641571500338614  0.7608252000063658  0.9265187764540315  1.0000
  H   H3        1.0  0.7458806246286258  0.16039683669805527  0.1613999865949154  1.0000
  H   H4        1.0  0.02059239987283945  0.4279257790185511  0.2389011869672686  1.0000
  H   H5        1.0  0.16273460909724236  0.4297211915254593  0.04203048348426819  1.0000
  H   H6        1.0  0.6621879666345194  0.6179781733080745  0.043981791473925114  1.0000
  H   H7        1.0  0.5034335684031248  0.555706325918436  0.4541756371036172  1.0000
  H   H8        1.0  0.6481631186325103  0.8034550920128822  0.6308487392961979  1.0000
  O   O1        1.0  0.4367558790836483  0.9206765209091827  0.6665787305682898  1.0000
  O   O2        1.0  0.8995283942203969  0.7854810172029829  0.20175906788790599  1.0000
  O   O3        1.0  0.040602704422781244  0.32206014246912673  0.16005584521917626  1.0000
  O   O4        1.0  0.1672729104757309  0.30420021852478385  0.824476205278188  1.0000
  O   O5        1.0  0.35436463402584195  0.8185327593237162  0.12462983629666269  1.0000
  O   O6        1.0  0.15456378387170844  0.02010903920745477  0.010921007604338229  1.0000
  O   O7        1.0  0.3183121890760958  0.19033143436536193  0.2707778331823647  1.0000
  O   O8        1.0  0.5499819493852556  0.46361358533613384  0.013932904228568077  1.0000
  O   O9        1.0  0.35512260417453945  0.7994486491661519  0.5485397853190079  1.0000
  O   O10       1.0  0.37940522909048013  0.444237123709172  0.8024171837605536  1.0000
  F   F1        1.0  0.8821633206680417  0.3983974754810333  0.8464956183452159  1.0000
  F   F2        1.0  0.6042223768308759  0.5437646526843309  0.9193872986361384  1.0000
data_image167
_chemical_formula_structural       Ca2P2H8O10F2
_chemical_formula_sum              "Ca2 P2 H8 O10 F2"
_cell_length_a       8.748547242261026
_cell_length_b       6.5292717768421165
_cell_length_c       5.804229554730758
_cell_angle_alpha    118.85637513684739
_cell_angle_beta     110.64940913561757
_cell_angle_gamma    94.26336680621436

_space_group_name_H-M_alt    "P 1"
_space_group_IT_number       1

loop_
  _space_group_symop_operation_xyz
  'x, y, z'

loop_
  _atom_site_type_symbol
  _atom_site_label
  _atom_site_symmetry_multiplicity
  _atom_site_fract_x
  _atom_site_fract_y
  _atom_site_fract_z
  _atom_site_occupancy
  Ca  Ca1       1.0  0.5894572222605348  0.32900120317935944  0.3366380538791418  1.0000
  Ca  Ca2       1.0  0.3420485993847251  0.5186036210507154  0.5876472340896726  1.0000
  P   P1        1.0  0.7935104193165898  0.3846780611202121  0.3134399801492691  1.0000
  P   P2        1.0  0.4290293725207448  0.4134656304959208  0.6506263536866754  1.0000
  H   H1        1.0  0.7433170794975013  0.1023561405017972  0.9822473204694688  1.0000
  H   H2        1.0  0.7036322716157883  0.0005546566098928452  0.7159548662602901  1.0000
  H   H3        1.0  0.7905825627967715  0.8419883502647281  0.9861770980060101  1.0000
  H   H4        1.0  0.44635392911732197  0.8731361774262041  0.9116194122470915  1.0000
  H   H5        1.0  0.3861628361046314  0.5818778723478317  0.8074835166335106  1.0000
  H   H6        1.0  0.1998229200253263  0.9916605520993471  0.005296813324093819  1.0000
  H   H7        1.0  0.0896903146058321  0.24253180250525475  0.9607114503160119  1.0000
  H   H8        1.0  0.6330350686330348  0.6337335836142302  0.3942511398345232  1.0000
  O   O1        1.0  0.9918920571217313  0.7097793988650665  0.38310783286578953  1.0000
  O   O2        1.0  0.7018014444183791  0.03500573381097638  0.4936793177621439  1.0000
  O   O3        1.0  0.6249882826086832  0.6425071494304575  0.055286427203100175  1.0000
  O   O4        1.0  0.9831376214278862  0.4183856137096882  0.9816128369420767  1.0000
  O   O5        1.0  0.8039293442852795  0.7321212571114302  0.45213316939771175  1.0000
  O   O6        1.0  0.09895055374363437  0.8412592262902763  0.6784238985273987  1.0000
  O   O7        1.0  0.9125179898692295  0.7711226479150355  0.7361214768607169  1.0000
  O   O8        1.0  0.0868512358283624  0.5288799949921668  0.568867742549628  1.0000
  O   O9        1.0  0.4662939858972095  0.5581014337949455  0.2971044769510627  1.0000
  O   O10       1.0  0.7551549126656028  0.8598231598734856  0.8206706140190363  1.0000
  F   F1        1.0  0.3642613645642996  0.4821998421102762  0.7127962233498693  1.0000
  F   F2        1.0  0.06214538705535233  0.8085751496255398  0.8272891510277987  1.0000
data_image168
_chemical_formula_structural       Ca2P2H8O10F2
_chemical_formula_sum              "Ca2 P2 H8 O10 F2"
_cell_length_a       8.748547242261026
_cell_length_b       6.5292717768421165
_cell_length_c       5.804229554730758
_cell_angle_alpha    118.85637513684739
_cell_angle_beta     110.64940913561757
_cell_angle_gamma    94.26336680621436

_space_group_name_H-M_alt    "P 1"
_space_group_IT_number       1

loop_
  _space_group_symop_operation_xyz
  'x, y, z'

loop_
  _atom_site_type_symbol
  _atom_site_label
  _atom_site_symmetry_multiplicity
  _atom_site_fract_x
  _atom_site_fract_y
  _atom_site_fract_z
  _atom_site_occupancy
  Ca  Ca1       1.0  0.07332403771579266  0.552071213722229  0.8727886378765106  1.0000
  Ca  Ca2       1.0  0.35304258996620774  0.025878120213747025  0.52811239939183  1.0000
  P   P1        1.0  0.08704843791201711  0.6123015750199556  0.46546293795108795  1.0000
  P   P2        1.0  0.45766108203679323  0.529091423843056  0.4113511578179896  1.0000
  H   H1        1.0  0.7992273326963186  0.3725851234048605  0.5464411518769339  1.0000
  H   H2        1.0  0.6595144979655743  0.6784036802127957  0.05873505678027868  1.0000
  H   H3        1.0  0.6115471609518863  0.7256512492895126  0.7831463888287544  1.0000
  H   H4        1.0  0.413308409973979  0.042608907679095864  0.10773279028944671  1.0000
  H   H5        1.0  0.5486517604440451  0.44969914853572845  0.7409073114395142  1.0000
  H   H6        1.0  0.9273520880378783  0.26955269929021597  0.6886410200968385  1.0000
  H   H7        1.0  0.34580234717577696  0.621116328984499  0.5200942512601614  1.0000
  H   H8        1.0  0.40469149337150156  0.0387233616784215  0.45268379896879196  1.0000
  O   O1        1.0  0.12721170263830572  0.8107857218128629  0.835967824794352  1.0000
  O   O2        1.0  0.43302367626165505  0.12901960488670738  0.10108060657512397  1.0000
  O   O3        1.0  0.29055847055860795  0.23283859842922539  0.6166661600582302  1.0000
  O   O4        1.0  0.4039794101845473  0.16667293710634112  0.5399293806403875  1.0000
  O   O5        1.0  0.8739695879630744  0.4698670324869454  0.9967448359820992  1.0000
  O   O6        1.0  0.29227950909989886  0.029275697917910293  0.714278573053889  1.0000
  O   O7        1.0  0.4739217561436817  0.6194636919535697  0.6816391265019774  1.0000
  O   O8        1.0  0.4288311724085361  0.662071393802762  0.6044583008624613  1.0000
  O   O9        1.0  0.1353662683395669  0.3605768559500575  0.25138515775324777  1.0000
  O   O10       1.0  0.5687304642924573  0.3725931313820183  0.9470457937568426  1.0000
  F   F1        1.0  0.6030702637508512  0.7501327320933342  0.4804346284363419  1.0000
  F   F2        1.0  0.08948904613498598  0.5014869477599859  0.036424409598112106  1.0000
data_image169
_chemical_formula_structural       Ca2P2H8O10F2
_chemical_formula_sum              "Ca2 P2 H8 O10 F2"
_cell_length_a       8.748547242261026
_cell_length_b       6.5292717768421165
_cell_length_c       5.804229554730758
_cell_angle_alpha    118.85637513684739
_cell_angle_beta     110.64940913561757
_cell_angle_gamma    94.26336680621436

_space_group_name_H-M_alt    "P 1"
_space_group_IT_number       1

loop_
  _space_group_symop_operation_xyz
  'x, y, z'

loop_
  _atom_site_type_symbol
  _atom_site_label
  _atom_site_symmetry_multiplicity
  _atom_site_fract_x
  _atom_site_fract_y
  _atom_site_fract_z
  _atom_site_occupancy
  Ca  Ca1       1.0  0.37979620415717363  0.7606027889996767  0.8360098674893379  1.0000
  Ca  Ca2       1.0  0.30972690787166357  0.8472461346536875  0.040171440690755844  1.0000
  P   P1        1.0  0.43881064746528864  0.773556612432003  0.0272150207310915  1.0000
  P   P2        1.0  0.5861142361536622  0.4284178069792688  0.6335687381215394  1.0000
  H   H1        1.0  0.11041448288597167  0.9165973654016852  0.4039970664307475  1.0000
  H   H2        1.0  0.626537638483569  0.8963986029848456  0.2996140653267503  1.0000
  H   H3        1.0  0.5384029874112457  0.0005183117464184761  0.8515180870890617  1.0000
  H   H4        1.0  0.6575836171396077  0.7516783373430371  0.9529878878965974  1.0000
  H   H5        1.0  0.006346827372908592  0.3306782841682434  0.021582283079624176  1.0000
  H   H6        1.0  0.9545060280943289  0.24767917674034834  0.9280924731865525  1.0000
  H   H7        1.0  0.027470231987535954  0.13884946703910828  0.40885178092867136  1.0000
  H   H8        1.0  0.1265358473174274  0.06636041775345802  0.9065204095095396  1.0000
  O   O1        1.0  0.9391474368749186  0.31572447885992005  0.801068811211735  1.0000
  O   O2        1.0  0.7429886136233108  0.5926479066019965  0.9760468180174939  1.0000
  O   O3        1.0  0.631397454359103  0.7932527718949132  0.9799183171708137  1.0000
  O   O4        1.0  0.7373205035692081  0.6190960328094661  0.8342563868500292  1.0000
  O   O5        1.0  0.5219432995654643  0.07323388056829572  0.7563922984991223  1.0000
  O   O6        1.0  0.18720539356581867  0.39408475620439276  0.6012203387217596  1.0000
  O   O7        1.0  0.4123444182332605  0.6347653067205101  0.5730652422644198  1.0000
  O   O8        1.0  0.6417947737500072  0.8112137517891824  0.2722957842051983  1.0000
  O   O9        1.0  0.5868113560136408  0.37039188854396343  0.2973422546638176  1.0000
  O   O10       1.0  0.7772597967559705  0.8532906640321016  0.8379814615473151  1.0000
  F   F1        1.0  0.7215045625343919  0.9204692356288433  0.008349064504727721  1.0000
  F   F2        1.0  0.13447343179723248  0.7718301974236965  0.5593900894746184  1.0000
data_image170
_chemical_formula_structural       Ca2P2H8O10F2
_chemical_formula_sum              "Ca2 P2 H8 O10 F2"
_cell_length_a       8.748547242261026
_cell_length_b       6.5292717768421165
_cell_length_c       5.804229554730758
_cell_angle_alpha    118.85637513684739
_cell_angle_beta     110.64940913561757
_cell_angle_gamma    94.26336680621436

_space_group_name_H-M_alt    "P 1"
_space_group_IT_number       1

loop_
  _space_group_symop_operation_xyz
  'x, y, z'

loop_
  _atom_site_type_symbol
  _atom_site_label
  _atom_site_symmetry_multiplicity
  _atom_site_fract_x
  _atom_site_fract_y
  _atom_site_fract_z
  _atom_site_occupancy
  Ca  Ca1       1.0  0.622034091502428  0.6951112523674965  0.14356391690671444  1.0000
  Ca  Ca2       1.0  0.17248161043971777  0.5990399047732353  0.11391507647931576  1.0000
  P   P1        1.0  0.17966537130996585  0.1955392388626933  0.22751072235405445  1.0000
  P   P2        1.0  0.20264087058603764  0.12463162955828011  0.06691635400056839  1.0000
  H   H1        1.0  0.6999613894149661  0.9470039810985327  0.6430177937727422  1.0000
  H   H2        1.0  0.9128575907088816  0.7603768110275269  0.8905526204034686  1.0000
  H   H3        1.0  0.39186800247989595  0.21273846831172705  0.08172116056084633  1.0000
  H   H4        1.0  0.23120151879265904  0.45281612570397556  0.8388046135660261  1.0000
  H   H5        1.0  0.46434018574655056  0.7155929580330849  0.3017168715596199  1.0000
  H   H6        1.0  0.7097371283452958  0.253172614146024  0.6955884573981166  1.0000
  H   H7        1.0  0.8984468933194876  0.061092182993888855  0.18742871284484863  1.0000
  H   H8        1.0  0.7411235477775335  0.24416137672960758  0.30454007536172867  1.0000
  O   O1        1.0  0.962046790169552  0.3071299951407127  0.11758215073496103  1.0000
  O   O2        1.0  0.31107481059007114  0.8660802496597171  0.5695826402516104  1.0000
  O   O3        1.0  0.07206571592541877  0.7531306069577113  0.6084521929151379  1.0000
  O   O4        1.0  0.1446470352821052  0.008658496662974358  0.5509385000914335  1.0000
  O   O5        1.0  0.6628822972998023  0.7835321221500635  0.3789487520698458  1.0000
  O   O6        1.0  0.8260801564611029  0.719447546522133  0.5874726687325165  1.0000
  O   O7        1.0  0.058520298975054175  0.020878081442788243  0.921038648346439  1.0000
  O   O8        1.0  0.9780793314566836  0.8506081951782107  0.5047570583410561  1.0000
  O   O9        1.0  0.4384460715809837  0.622283898293972  0.09787823428632692  1.0000
  O   O10       1.0  0.5302456829376752  0.5590155208483338  0.1420897920615971  1.0000
  F   F1        1.0  0.42914821300655603  0.022640280425548553  0.8351980599109083  1.0000
  F   F2        1.0  0.6605981694883667  0.8026732541620731  0.37638992071151733  1.0000
data_image171
_chemical_formula_structural       Ca2P2H8O10F2
_chemical_formula_sum              "Ca2 P2 H8 O10 F2"
_cell_length_a       8.748547242261026
_cell_length_b       6.5292717768421165
_cell_length_c       5.804229554730758
_cell_angle_alpha    118.85637513684739
_cell_angle_beta     110.64940913561757
_cell_angle_gamma    94.26336680621436

_space_group_name_H-M_alt    "P 1"
_space_group_IT_number       1

loop_
  _space_group_symop_operation_xyz
  'x, y, z'

loop_
  _atom_site_type_symbol
  _atom_site_label
  _atom_site_symmetry_multiplicity
  _atom_site_fract_x
  _atom_site_fract_y
  _atom_site_fract_z
  _atom_site_occupancy
  Ca  Ca1       1.0  0.6281667314469814  0.8094568848609924  0.7457048678770661  1.0000
  Ca  Ca2       1.0  0.6059719882905483  0.650864141061902  0.5669031338766217  1.0000
  P   P1        1.0  0.3351440681144595  0.19307027757167816  0.45501992478966713  1.0000
  P   P2        1.0  0.09558449685573578  0.8110803267918527  0.33147065807133913  1.0000
  H   H1        1.0  0.11795632331632078  0.3019185923039913  0.6179050344508141  1.0000
  H   H2        1.0  0.8276186604052782  0.5300667025148869  0.7510068072006106  1.0000
  H   H3        1.0  0.9909183019772172  0.8346007573418319  0.4924525022506714  1.0000
  H   H4        1.0  0.4057727577164769  0.9958087881095707  0.7702639237977564  1.0000
  H   H5        1.0  0.46667989529669285  0.620137557387352  0.9582425877451897  1.0000
  H   H6        1.0  0.12464047636603937  0.42128704441711307  0.5106747448444366  1.0000
  H   H7        1.0  0.8687062719836831  0.31396232917904854  0.49440179485827684  1.0000
  H   H8        1.0  0.2694413426797837  0.274466504342854  0.7855407316237688  1.0000
  O   O1        1.0  0.05022581305820495  0.9190421402454376  0.6037592343054712  1.0000
  O   O2        1.0  0.8316462344882893  0.27155268657952547  0.7140017115452792  1.0000
  O   O3        1.0  0.4170398304268019  0.42025394190568477  0.15253067010780796  1.0000
  O   O4        1.0  0.04282299103215337  0.8464488764293492  0.1761551219969988  1.0000
  O   O5        1.0  0.22374371998012066  0.6419791197404265  0.3139882192481309  1.0000
  O   O6        1.0  0.48484143349924125  0.5356097794719972  0.6138323111226782  1.0000
  O   O7        1.0  0.5346116998698562  0.8356342776678503  0.8701088670641184  1.0000
  O   O8        1.0  0.3085038912249729  0.5144974333234131  0.6261421763338149  1.0000
  O   O9        1.0  0.2921598877874203  0.15142548410221934  0.17448674037586898  1.0000
  O   O10       1.0  0.893000384530751  0.11674937047064304  0.8511420185677707  1.0000
  F   F1        1.0  0.13722304441034794  0.412717591971159  0.31365513685159385  1.0000
  F   F2        1.0  0.6066929471271578  0.2566760666668415  0.05918414145708084  1.0000
data_image172
_chemical_formula_structural       Ca2P2H8O10F2
_chemical_formula_sum              "Ca2 P2 H8 O10 F2"
_cell_length_a       8.748547242261026
_cell_length_b       6.5292717768421165
_cell_length_c       5.804229554730758
_cell_angle_alpha    118.85637513684739
_cell_angle_beta     110.64940913561757
_cell_angle_gamma    94.26336680621436

_space_group_name_H-M_alt    "P 1"
_space_group_IT_number       1

loop_
  _space_group_symop_operation_xyz
  'x, y, z'

loop_
  _atom_site_type_symbol
  _atom_site_label
  _atom_site_symmetry_multiplicity
  _atom_site_fract_x
  _atom_site_fract_y
  _atom_site_fract_z
  _atom_site_occupancy
  Ca  Ca1       1.0  0.04101982153952122  0.2172448504716158  0.01722949743270874  1.0000
  Ca  Ca2       1.0  0.5928275934420526  0.48574875853955746  0.09795192442834377  1.0000
  P   P1        1.0  0.8279906241223216  0.6734743947163224  0.36186462454497814  1.0000
  P   P2        1.0  0.6478548794984818  0.4189617733936757  0.19585058698430657  1.0000
  H   H1        1.0  0.3140670955181122  0.8016735408455133  0.6830110952723771  1.0000
  H   H2        1.0  0.3600866259075701  0.19667510502040386  0.6779417237266898  1.0000
  H   H3        1.0  0.5123871597461402  0.3332062349654734  0.5172574277967215  1.0000
  H   H4        1.0  0.7864181282930076  0.33831136696971953  0.5955116974655539  1.0000
  H   H5        1.0  0.42322154343128204  0.7319406419992447  0.051991358399391174  1.0000
  H   H6        1.0  0.04468792292755097  0.3094870517961681  0.6828201422467828  1.0000
  H   H7        1.0  0.16789866238832474  0.03533286228775978  0.18926004227250814  1.0000
  H   H8        1.0  0.0924316169694066  0.7131288712844253  0.5540479514747858  1.0000
  O   O1        1.0  0.7063859521877021  0.2476721002603881  0.4128183878492564  1.0000
  O   O2        1.0  0.4384344521386083  0.37894175824476406  0.7722544751595706  1.0000
  O   O3        1.0  0.28108602068095934  0.7196021505515091  0.18519455479690805  1.0000
  O   O4        1.0  0.18447592738084495  0.08552987733855844  0.8829396148212254  1.0000
  O   O5        1.0  0.5419184234924614  0.17325745476409793  0.1989145204424858  1.0000
  O   O6        1.0  0.8090297241724329  0.7151710631806054  0.8964562013279647  1.0000
  O   O7        1.0  0.7383682106155902  0.396063745720312  0.4039880190975964  1.0000
  O   O8        1.0  0.7821754672331735  0.703485191334039  0.885323787573725  1.0000
  O   O9        1.0  0.3234080128604546  0.5228229742497206  0.4448895067325793  1.0000
  O   O10       1.0  0.4326138770120451  0.1418617656454444  0.5806041513569653  1.0000
  F   F1        1.0  0.06572165340185165  0.205653365701437  0.9496019267244264  1.0000
  F   F2        1.0  0.4047506501083262  0.38473168201744556  0.5936061022803187  1.0000
data_image173
_chemical_formula_structural       Ca2P2H8O10F2
_chemical_formula_sum              "Ca2 P2 H8 O10 F2"
_cell_length_a       8.748547242261026
_cell_length_b       6.5292717768421165
_cell_length_c       5.804229554730758
_cell_angle_alpha    118.85637513684739
_cell_angle_beta     110.64940913561757
_cell_angle_gamma    94.26336680621436

_space_group_name_H-M_alt    "P 1"
_space_group_IT_number       1

loop_
  _space_group_symop_operation_xyz
  'x, y, z'

loop_
  _atom_site_type_symbol
  _atom_site_label
  _atom_site_symmetry_multiplicity
  _atom_site_fract_x
  _atom_site_fract_y
  _atom_site_fract_z
  _atom_site_occupancy
  Ca  Ca1       1.0  0.7803383050486445  0.5619455706328154  0.04791861213743687  1.0000
  Ca  Ca2       1.0  0.27287924056872725  0.857900470495224  0.29416502080857754  1.0000
  P   P1        1.0  0.7284091799519956  0.9640735276043415  0.2604615706950426  1.0000
  P   P2        1.0  0.46521222312003374  0.2528476973529905  0.28840695647522807  1.0000
  H   H1        1.0  0.6965051563456655  0.17444742377847433  0.8149089775979519  1.0000
  H   H2        1.0  0.7652578600682318  0.9563849568367004  0.6441294485703111  1.0000
  H   H3        1.0  0.20445565436966717  0.41007094411179423  0.7769665103405714  1.0000
  H   H4        1.0  0.2908268114551902  0.1244923414196819  0.9718590311240405  1.0000
  H   H5        1.0  0.12668093852698803  0.78252112865448  0.4615725949406624  1.0000
  H   H6        1.0  0.7130209546303377  0.005807284731417894  0.5702934237197042  1.0000
  H   H7        1.0  0.5436305468901992  0.1391511894762516  0.3844807166606188  1.0000
  H   H8        1.0  0.768871275242418  0.7667857157066464  0.5348994992673397  1.0000
  O   O1        1.0  0.6102187670767307  0.34377885347930714  0.17738167336210608  1.0000
  O   O2        1.0  0.8501978057756787  0.5704408541787416  0.16379721323028207  1.0000
  O   O3        1.0  0.5236323322315002  0.8602980392170139  0.9087501790490933  1.0000
  O   O4        1.0  0.7040128649678081  0.956329207867384  0.647347608115524  1.0000
  O   O5        1.0  0.044147640001028776  0.844747026450932  0.25993674248456955  1.0000
  O   O6        1.0  0.5309867443793337  0.21524507697904482  0.8995209743734449  1.0000
  O   O7        1.0  0.770753025310114  0.8200749871321023  0.06402790360152721  1.0000
  O   O8        1.0  0.22574730752967298  0.6756101199425757  0.9152722205035388  1.0000
  O   O9        1.0  0.46720611839555204  0.23231719201430678  0.8744241268141195  1.0000
  O   O10       1.0  0.0040308918978553265  0.0360212423838675  0.22256935061886907  1.0000
  F   F1        1.0  0.02633912581950426  0.9330285433679819  0.32957574375905097  1.0000
  F   F2        1.0  0.1343477174959844  0.4451487474143505  0.18204887676984072  1.0000
data_image174
_chemical_formula_structural       Ca2P2H8O10F2
_chemical_formula_sum              "Ca2 P2 H8 O10 F2"
_cell_length_a       8.748547242261026
_cell_length_b       6.5292717768421165
_cell_length_c       5.804229554730758
_cell_angle_alpha    118.85637513684739
_cell_angle_beta     110.64940913561757
_cell_angle_gamma    94.26336680621436

_space_group_name_H-M_alt    "P 1"
_space_group_IT_number       1

loop_
  _space_group_symop_operation_xyz
  'x, y, z'

loop_
  _atom_site_type_symbol
  _atom_site_label
  _atom_site_symmetry_multiplicity
  _atom_site_fract_x
  _atom_site_fract_y
  _atom_site_fract_z
  _atom_site_occupancy
  Ca  Ca1       1.0  0.11065529007464647  0.5683150421828032  0.3482158612459898  1.0000
  Ca  Ca2       1.0  0.6757459086365998  0.5281889569014311  0.5845841830596328  1.0000
  P   P1        1.0  0.4272714201360941  0.5171119421720505  0.6362261325120926  1.0000
  P   P2        1.0  0.692519398406148  0.2145936661399901  0.5147889372892678  1.0000
  H   H1        1.0  0.4820412187837064  0.3253359729424119  0.9255584962666035  1.0000
  H   H2        1.0  0.3058350814972073  0.6270620655268431  0.5173239931464195  1.0000
  H   H3        1.0  0.8390030930750072  0.18006635224446654  0.6882687918841839  1.0000
  H   H4        1.0  0.6971458583138883  0.5416196817532182  0.8131792531348765  1.0000
  H   H5        1.0  0.7817607130855322  0.34273308515548706  0.2785215750336647  1.0000
  H   H6        1.0  0.6608523380709812  0.8391091418452561  0.6941923452541232  1.0000
  H   H7        1.0  0.40654446836560965  0.03008309379220009  0.7066470617428422  1.0000
  H   H8        1.0  0.6008965247310698  0.005961584858596325  0.4017040766775608  1.0000
  O   O1        1.0  0.0604348483029753  0.8612101271282881  0.022288804408162832  1.0000
  O   O2        1.0  0.6850976599380374  0.2578365812660195  0.31449852291552816  1.0000
  O   O3        1.0  0.33947549226286355  0.080159341043327  0.1605209280969575  1.0000
  O   O4        1.0  0.5545971990795806  0.20052808383479714  0.20316637260839343  1.0000
  O   O5        1.0  0.4723326372914016  0.07155482564121485  0.3527660851832479  1.0000
  O   O6        1.0  0.3884476716575591  0.4955595073697623  0.13775022816844285  1.0000
  O   O7        1.0  0.9555435469374061  0.03700066963210702  0.048620028188452125  1.0000
  O   O8        1.0  0.40657159383408725  0.4733689746353775  0.46012102952226996  1.0000
  O   O9        1.0  0.9352682168246247  0.203751337248832  0.6396462641423568  1.0000
  O   O10       1.0  0.9853560988121899  0.6259615058079362  0.9503220128826797  1.0000
  F   F1        1.0  0.26175453420728445  0.17636988870799541  0.4275820436887443  1.0000
  F   F2        1.0  0.6505521578874323  0.3709918428212404  0.3313188701868057  1.0000
data_image175
_chemical_formula_structural       Ca2P2H8O10F2
_chemical_formula_sum              "Ca2 P2 H8 O10 F2"
_cell_length_a       8.748547242261026
_cell_length_b       6.5292717768421165
_cell_length_c       5.804229554730758
_cell_angle_alpha    118.85637513684739
_cell_angle_beta     110.64940913561757
_cell_angle_gamma    94.26336680621436

_space_group_name_H-M_alt    "P 1"
_space_group_IT_number       1

loop_
  _space_group_symop_operation_xyz
  'x, y, z'

loop_
  _atom_site_type_symbol
  _atom_site_label
  _atom_site_symmetry_multiplicity
  _atom_site_fract_x
  _atom_site_fract_y
  _atom_site_fract_z
  _atom_site_occupancy
  Ca  Ca1       1.0  0.6407960699871182  0.1856964621692896  0.9881535992026329  1.0000
  Ca  Ca2       1.0  0.44546084059402347  0.14191449247300625  0.6245400523766875  1.0000
  P   P1        1.0  0.5619146502576768  0.06500152871012688  0.4845006689429283  1.0000
  P   P2        1.0  0.9329964276403189  0.34195531345903873  0.8211323535069823  1.0000
  H   H1        1.0  0.1845385127235204  0.4190054275095463  0.9521206528879702  1.0000
  H   H2        1.0  0.9759729960933328  0.5557021033018827  0.618417845107615  1.0000
  H   H3        1.0  0.7924190980847925  0.8664792869240046  0.9724513031542301  1.0000
  H   H4        1.0  0.24413380539044738  0.13218663993757218  0.9058127119205892  1.0000
  H   H5        1.0  0.8465407714247704  0.6047900393605232  0.4433639943599701  1.0000
  H   H6        1.0  0.16133364627603441  0.5170098547823727  0.5689958278089762  1.0000
  H   H7        1.0  0.41752874851226807  0.9703813344240189  0.042236244305968285  1.0000
  H   H8        1.0  0.4365660324692726  0.9833647930063307  0.6009728573262691  1.0000
  O   O1        1.0  0.04630261147394776  0.9829863350023516  0.20077556208707392  1.0000
  O   O2        1.0  0.34630102083610836  0.9920369638130069  0.678293432443752  1.0000
  O   O3        1.0  0.37992679090530146  0.1311158441239968  0.2974090268253349  1.0000
  O   O4        1.0  0.45905557682272047  0.6681885877624154  0.8021999364718795  1.0000
  O   O5        1.0  0.23616837849840522  0.3429921194911003  0.5142914552707225  1.0000
  O   O6        1.0  0.5341328278009314  0.1861364833312109  0.32171083509456366  1.0000
  O   O7        1.0  0.9677448533475399  0.4323353194631636  0.3596225481014699  1.0000
  O   O8        1.0  0.45625862770248204  0.4567442345432937  0.16931055346503854  1.0000
  O   O9        1.0  0.36720495991175994  0.6607631193473935  0.8065382955246605  1.0000
  O   O10       1.0  0.09015539547544904  0.3855531420558691  0.6605262160301208  1.0000
  F   F1        1.0  0.8906546272337437  0.08484376408159733  0.3844332452863455  1.0000
  F   F2        1.0  0.3204314212780446  0.09526841528713703  0.5822362639009953  1.0000
data_image176
_chemical_formula_structural       Ca2P2H8O10F2
_chemical_formula_sum              "Ca2 P2 H8 O10 F2"
_cell_length_a       8.748547242261026
_cell_length_b       6.5292717768421165
_cell_length_c       5.804229554730758
_cell_angle_alpha    118.85637513684739
_cell_angle_beta     110.64940913561757
_cell_angle_gamma    94.26336680621436

_space_group_name_H-M_alt    "P 1"
_space_group_IT_number       1

loop_
  _space_group_symop_operation_xyz
  'x, y, z'

loop_
  _atom_site_type_symbol
  _atom_site_label
  _atom_site_symmetry_multiplicity
  _atom_site_fract_x
  _atom_site_fract_y
  _atom_site_fract_z
  _atom_site_occupancy
  Ca  Ca1       1.0  0.17285512667149305  0.5144884008914232  0.05786360986530781  1.0000
  Ca  Ca2       1.0  0.11658417852595448  0.5069303829222918  0.7395048448815942  1.0000
  P   P1        1.0  0.9490837571211159  0.0991886556148529  0.06613981910049915  1.0000
  P   P2        1.0  0.10482541285455227  0.07274541037622839  0.2539544408209622  1.0000
  H   H1        1.0  0.09292694309260696  0.8707926739007235  0.2556032872525975  1.0000
  H   H2        1.0  0.05465789185836911  0.935134313069284  0.7436585025861859  1.0000
  H   H3        1.0  0.030631954316049814  0.3897903566248715  0.4850309398025274  1.0000
  H   H4        1.0  0.5478118909522891  0.47226185468025506  0.7622221906203777  1.0000
  H   H5        1.0  0.11783292517066002  0.21551496535539627  0.07791130244731903  1.0000
  H   H6        1.0  0.4044131925329566  0.5435253097675741  0.2727030818350613  1.0000
  H   H7        1.0  0.5824470277875662  0.012244090437889099  0.8895405037328601  1.0000
  H   H8        1.0  0.5711164069361985  0.39589937357231975  0.551724623888731  1.0000
  O   O1        1.0  0.8107157947961241  0.43342000077245757  0.6505439740139991  1.0000
  O   O2        1.0  0.03203980367834447  0.267490076192189  0.269127080697217  1.0000
  O   O3        1.0  0.7369921045319643  0.9473349933396094  0.7399232428288087  1.0000
  O   O4        1.0  0.3699745504418388  0.359965683426708  0.41001520957797766  1.0000
  O   O5        1.0  0.4132134187966585  0.2751559033058584  0.9400836781132966  1.0000
  O   O6        1.0  0.9674633738759439  0.3229702878452372  0.8282867532689124  1.0000
  O   O7        1.0  0.422819776693359  0.48251149454154074  0.8931962375063449  1.0000
  O   O8        1.0  0.11107883870135993  0.507636102847755  0.91569341160357  1.0000
  O   O9        1.0  0.03993424272630364  0.6781134475022554  0.8130943636060692  1.0000
  O   O10       1.0  0.5237298153224401  0.02564324764534831  0.17276641493663192  1.0000
  F   F1        1.0  0.9475870588794351  0.3569034095853567  0.45470602600835264  1.0000
  F   F2        1.0  0.6204317940864712  0.5745510589331388  0.8288194499909878  1.0000
data_image177
_chemical_formula_structural       Ca2P2H8O10F2
_chemical_formula_sum              "Ca2 P2 H8 O10 F2"
_cell_length_a       8.748547242261026
_cell_length_b       6.5292717768421165
_cell_length_c       5.804229554730758
_cell_angle_alpha    118.85637513684739
_cell_angle_beta     110.64940913561757
_cell_angle_gamma    94.26336680621436

_space_group_name_H-M_alt    "P 1"
_space_group_IT_number       1

loop_
  _space_group_symop_operation_xyz
  'x, y, z'

loop_
  _atom_site_type_symbol
  _atom_site_label
  _atom_site_symmetry_multiplicity
  _atom_site_fract_x
  _atom_site_fract_y
  _atom_site_fract_z
  _atom_site_occupancy
  Ca  Ca1       1.0  0.49909728206694126  0.5731186028569937  0.7577309459447861  1.0000
  Ca  Ca2       1.0  0.5084796654991806  0.29524702951312065  0.7012712750583887  1.0000
  P   P1        1.0  0.728766811080277  0.7327886400744319  0.15340344421565533  1.0000
  P   P2        1.0  0.11830166913568974  0.6643622406991199  0.8803368408698589  1.0000
  H   H1        1.0  0.6008124628569931  0.15262421406805515  0.31473572948016226  1.0000
  H   H2        1.0  0.26685424288734794  0.3482628669589758  0.02346891723573208  1.0000
  H   H3        1.0  0.9143459371989593  0.05855693854391575  0.4292707182466984  1.0000
  H   H4        1.0  0.8023315919563174  0.6431545657105744  0.15228788973763585  1.0000
  H   H5        1.0  0.8504356108605862  0.7457234188914299  0.22822172939777374  1.0000
  H   H6        1.0  0.277687172871083  0.8934111846610904  0.929689000826329  1.0000
  H   H7        1.0  0.9534074338153005  0.11715365201234818  0.42671287804841995  1.0000
  H   H8        1.0  0.7791365424636751  0.002134845592081547  0.4379140790551901  1.0000
  O   O1        1.0  0.8722918059211224  0.4171742514008656  0.6459150405135006  1.0000
  O   O2        1.0  0.8781244350757333  0.9070071178139187  0.6340406770759728  1.0000
  O   O3        1.0  0.1442951430217363  0.31432143674464896  0.9435221355524845  1.0000
  O   O4        1.0  0.5715527153806761  0.8311731992289424  0.12766248732805252  1.0000
  O   O5        1.0  0.9459828599356115  0.895458678714931  0.7885266887024045  1.0000
  O   O6        1.0  0.8686386686749756  0.8573075187014183  0.10920064453966916  1.0000
  O   O7        1.0  0.08917534211650491  0.7948823187034577  0.5260998567100614  1.0000
  O   O8        1.0  0.9752726018195972  0.544866556301713  0.8819507239386439  1.0000
  O   O9        1.0  0.9276949689956382  0.651771460659802  0.5162469638453331  1.0000
  O   O10       1.0  0.6659955038048793  0.6565243010409176  0.009513891767710447  1.0000
  F   F1        1.0  0.4407614963129163  0.018964238464832306  0.6439131759107113  1.0000
  F   F2        1.0  0.7870888791512698  0.8062059246003628  0.3847872167825699  1.0000
data_image178
_chemical_formula_structural       Ca2P2H8O10F2
_chemical_formula_sum              "Ca2 P2 H8 O10 F2"
_cell_length_a       8.748547242261026
_cell_length_b       6.5292717768421165
_cell_length_c       5.804229554730758
_cell_angle_alpha    118.85637513684739
_cell_angle_beta     110.64940913561757
_cell_angle_gamma    94.26336680621436

_space_group_name_H-M_alt    "P 1"
_space_group_IT_number       1

loop_
  _space_group_symop_operation_xyz
  'x, y, z'

loop_
  _atom_site_type_symbol
  _atom_site_label
  _atom_site_symmetry_multiplicity
  _atom_site_fract_x
  _atom_site_fract_y
  _atom_site_fract_z
  _atom_site_occupancy
  Ca  Ca1       1.0  0.9632277665659785  0.44387781247496605  0.42256595473736525  1.0000
  Ca  Ca2       1.0  0.3771379552781582  0.7216449491679668  0.024255169555544853  1.0000
  P   P1        1.0  0.8375078868120909  0.6399531867355108  0.1327599585056305  1.0000
  P   P2        1.0  0.7527762018144131  0.6175616963300854  0.6306038822513074  1.0000
  H   H1        1.0  0.3778224742272869  0.035305571742355824  0.8285679944092408  1.0000
  H   H2        1.0  0.33253850555047393  0.1495702601969242  0.25993693619966507  1.0000
  H   H3        1.0  0.5227390537038445  0.8728936449624598  0.4563928861171007  1.0000
  H   H4        1.0  0.45836692210286856  0.1098117547808215  0.41976606263779104  1.0000
  H   H5        1.0  0.822169890627265  0.6132631078362465  0.8224118873476982  1.0000
  H   H6        1.0  0.889148369198665  0.19362646667286754  0.8877022638916969  1.0000
  H   H7        1.0  0.3653919883072376  0.4677077494561672  0.35669516772031784  1.0000
  H   H8        1.0  0.923913192236796  0.25404910696670413  0.6227244138717651  1.0000
  O   O1        1.0  0.8788738595321774  0.5099103676038794  0.6445561212021858  1.0000
  O   O2        1.0  0.3460472227088758  0.050473609764594585  0.06280786971910857  1.0000
  O   O3        1.0  0.8120218038238818  0.10951691382797435  0.5897538476274349  1.0000
  O   O4        1.0  0.548085416550748  0.9032895346172154  0.6476395889185369  1.0000
  O   O5        1.0  0.17524663219228387  0.5072631831280887  0.8947145265992731  1.0000
  O   O6        1.0  0.5124093110644026  0.29219917209411506  0.1943880650214851  1.0000
  O   O7        1.0  0.7440049157012254  0.20969544164836407  0.7910384647548199  1.0000
  O   O8        1.0  0.7487662206403911  0.670809276169166  0.8185599111020565  1.0000
  O   O9        1.0  0.8632982157287188  0.4450065102428198  0.8679873282089829  1.0000
  O   O10       1.0  0.6340401042834856  0.11147248093038797  0.8875369555316865  1.0000
  F   F1        1.0  0.5227797264233232  0.8835700899362564  0.5827863067388535  1.0000
  F   F2        1.0  0.2357772848336026  0.739725835621357  0.28203813172876835  1.0000
data_image179
_chemical_formula_structural       Ca2P2H8O10F2
_chemical_formula_sum              "Ca2 P2 H8 O10 F2"
_cell_length_a       8.748547242261026
_cell_length_b       6.5292717768421165
_cell_length_c       5.804229554730758
_cell_angle_alpha    118.85637513684739
_cell_angle_beta     110.64940913561757
_cell_angle_gamma    94.26336680621436

_space_group_name_H-M_alt    "P 1"
_space_group_IT_number       1

loop_
  _space_group_symop_operation_xyz
  'x, y, z'

loop_
  _atom_site_type_symbol
  _atom_site_label
  _atom_site_symmetry_multiplicity
  _atom_site_fract_x
  _atom_site_fract_y
  _atom_site_fract_z
  _atom_site_occupancy
  Ca  Ca1       1.0  0.8388045476749539  0.3576836846768856  0.389576843008399  1.0000
  Ca  Ca2       1.0  0.14112098282203078  0.7946606129407883  0.5928291194140911  1.0000
  P   P1        1.0  0.2712077694013715  0.9245293783023953  0.02159431204199791  1.0000
  P   P2        1.0  0.8819294017739594  0.6059354912722483  0.9787277590949088  1.0000
  H   H1        1.0  0.4870367292314768  0.7249663658440113  0.49141360039357096  1.0000
  H   H2        1.0  0.2717296164482832  0.91270144097507  0.362347642891109  1.0000
  H   H3        1.0  0.2551359188510105  0.8989139678888023  0.8699453622102737  1.0000
  H   H4        1.0  0.12523081805557013  0.4525660614017397  0.3062056968919933  1.0000
  H   H5        1.0  0.9277866706252098  0.23480535298585892  0.17539115995168686  1.0000
  H   H6        1.0  0.372448424808681  0.8147733258083463  0.8404009183868766  1.0000
  H   H7        1.0  0.10901439096778631  0.8435046002268791  0.681220349855721  1.0000
  H   H8        1.0  0.024884567130357027  0.36069857189431787  0.4601909313350916  1.0000
  O   O1        1.0  0.4146011006087065  0.8070878281141631  0.13656210014596581  1.0000
  O   O2        1.0  0.4018907999707153  0.6297028682311065  0.9020501982886344  1.0000
  O   O3        1.0  0.8860445910613635  0.2777981400722638  0.9789943870273419  1.0000
  O   O4        1.0  0.8099950307514518  0.8584366054274142  0.3487286758609116  1.0000
  O   O5        1.0  0.25288523081690073  0.5182671714574099  0.5730788360815495  1.0000
  O   O6        1.0  0.42933604851714335  0.5832341615459882  0.575576176866889  1.0000
  O   O7        1.0  0.4692209009081125  0.930166861275211  0.5430441924836487  1.0000
  O   O8        1.0  0.17381259240210056  0.9882737477310002  0.2998925135470927  1.0000
  O   O9        1.0  0.001335300097707659  0.14848635718226433  0.9981710815045517  1.0000
  O   O10       1.0  0.965541308367392  0.8018925655633211  0.6532213720493019  1.0000
  F   F1        1.0  0.4221323989331722  0.10694076120853424  0.5468549516517669  1.0000
  F   F2        1.0  0.468726982595399  0.044426079839468  0.9206556249409914  1.0000
data_image180
_chemical_formula_structural       Ca2P2H8O10F2
_chemical_formula_sum              "Ca2 P2 H8 O10 F2"
_cell_length_a       8.748547242261026
_cell_length_b       6.5292717768421165
_cell_length_c       5.804229554730758
_cell_angle_alpha    118.85637513684739
_cell_angle_beta     110.64940913561757
_cell_angle_gamma    94.26336680621436

_space_group_name_H-M_alt    "P 1"
_space_group_IT_number       1

loop_
  _space_group_symop_operation_xyz
  'x, y, z'

loop_
  _atom_site_type_symbol
  _atom_site_label
  _atom_site_symmetry_multiplicity
  _atom_site_fract_x
  _atom_site_fract_y
  _atom_site_fract_z
  _atom_site_occupancy
  Ca  Ca1       1.0  0.2637268528342247  0.502524534240365  0.3038884736597538  1.0000
  Ca  Ca2       1.0  0.18439127504825592  0.6243846882134676  0.5934359338134527  1.0000
  P   P1        1.0  0.05377893429249525  0.9490364668890834  0.3406674023717642  1.0000
  P   P2        1.0  0.793083458673209  0.5234297490678728  0.6165990738663822  1.0000
  H   H1        1.0  0.4882027867715806  0.7664077915251255  0.9538486136589199  1.0000
  H   H2        1.0  0.2831526813097298  0.1810217797756195  0.5496613327413797  1.0000
  H   H3        1.0  0.6639106094371527  0.09078227309510112  0.9517815746366978  1.0000
  H   H4        1.0  0.6163304601795971  0.18775312037905678  0.7748164323857054  1.0000
  H   H5        1.0  0.2781283501535654  0.711676262319088  0.4598575308918953  1.0000
  H   H6        1.0  0.40563550568185747  0.6655614832416177  0.4147804584354162  1.0000
  H   H7        1.0  0.6470508323982358  0.7038896977901459  0.5092426491901278  1.0000
  H   H8        1.0  0.5696946755051613  0.690557059366256  0.9709192980080843  1.0000
  O   O1        1.0  0.17582181468605995  0.42139284289442  0.07829637476243079  1.0000
  O   O2        1.0  0.14425991374446312  0.48293505021138117  0.7116343263041927  1.0000
  O   O3        1.0  0.5934655253149685  0.9910061420523562  0.6888338563148864  1.0000
  O   O4        1.0  0.17458083725068718  0.7679552077315748  0.34947309037670493  1.0000
  O   O5        1.0  0.7229769569821656  0.28225604025647044  0.15345649817027152  1.0000
  O   O6        1.0  0.5875734662113246  0.04642608833091799  0.7893069519195706  1.0000
  O   O7        1.0  0.5136029084096663  0.15959072741679847  0.8989237700589001  1.0000
  O   O8        1.0  0.2936986938584596  0.7616045287577435  0.6592996437102556  1.0000
  O   O9        1.0  0.21686574479099363  0.6995304632000625  0.7571621451061219  1.0000
  O   O10       1.0  0.079252617637394  0.08647699374705553  0.4258845029398799  1.0000
  F   F1        1.0  0.3908403590321541  0.7704437859356403  0.5348002894315869  1.0000
  F   F2        1.0  0.6887765050632879  0.21974774822592735  0.4301986191421747  1.0000
data_image181
_chemical_formula_structural       Ca2P2H8O10F2
_chemical_formula_sum              "Ca2 P2 H8 O10 F2"
_cell_length_a       8.748547242261026
_cell_length_b       6.5292717768421165
_cell_length_c       5.804229554730758
_cell_angle_alpha    118.85637513684739
_cell_angle_beta     110.64940913561757
_cell_angle_gamma    94.26336680621436

_space_group_name_H-M_alt    "P 1"
_space_group_IT_number       1

loop_
  _space_group_symop_operation_xyz
  'x, y, z'

loop_
  _atom_site_type_symbol
  _atom_site_label
  _atom_site_symmetry_multiplicity
  _atom_site_fract_x
  _atom_site_fract_y
  _atom_site_fract_z
  _atom_site_occupancy
  Ca  Ca1       1.0  0.24012916442006826  0.3451763652265072  0.27497156523168087  1.0000
  Ca  Ca2       1.0  0.8440726827830076  0.6870733201503754  0.0038541918620467186  1.0000
  P   P1        1.0  0.5942358206957579  0.45999628212302923  0.8339618965983391  1.0000
  P   P2        1.0  0.9644983378238976  0.37695870746392757  0.5993097429163754  1.0000
  H   H1        1.0  0.4575815093703568  0.14992978423833847  0.428781078546308  1.0000
  H   H2        1.0  0.17418126156553626  0.6061692852526903  0.4559766370803118  1.0000
  H   H3        1.0  0.6960309053538367  0.8408841202035546  0.1574843842536211  1.0000
  H   H4        1.0  0.9400886087678373  0.05284515503444709  0.32057883916422725  1.0000
  H   H5        1.0  0.4754702541977167  0.9139038771390915  0.30697742104530334  1.0000
  H   H6        1.0  0.3579406588105485  0.4437782275490463  0.8193589802831411  1.0000
  H   H7        1.0  0.33678154833614826  0.024623755365610123  0.07008632738143206  1.0000
  H   H8        1.0  0.11951109557412565  0.31504536513239145  0.08187015354633331  1.0000
  O   O1        1.0  0.24705617083236575  0.49303464352851734  0.7395903905853629  1.0000
  O   O2        1.0  0.372954368814419  0.5234496025368571  0.9115514044970041  1.0000
  O   O3        1.0  0.2121703827251622  0.28175728413043544  0.28370791231282055  1.0000
  O   O4        1.0  0.6502090982394293  0.9010834363289177  0.6605766024440527  1.0000
  O   O5        1.0  0.6978339259512722  0.8232300262898207  0.0690898452885449  1.0000
  O   O6        1.0  0.9645479356840951  0.4041412143706111  0.841522429138422  1.0000
  O   O7        1.0  0.9699890742485877  0.9706846983172  0.03570768120698631  1.0000
  O   O8        1.0  0.6282516258070245  0.8715037673246115  0.5581405097618699  1.0000
  O   O9        1.0  0.9821231940295547  0.7135694813914597  0.45919370945193805  1.0000
  O   O10       1.0  0.8341848292620853  0.0002187197096645832  0.3787668189033866  1.0000
  F   F1        1.0  0.40678415540605783  0.3157821800559759  0.640375770861283  1.0000
  F   F2        1.0  0.174081489443779  0.4161060284823179  0.21671772189438343  1.0000
data_image182
_chemical_formula_structural       Ca2P2H8O10F2
_chemical_formula_sum              "Ca2 P2 H8 O10 F2"
_cell_length_a       8.748547242261026
_cell_length_b       6.5292717768421165
_cell_length_c       5.804229554730758
_cell_angle_alpha    118.85637513684739
_cell_angle_beta     110.64940913561757
_cell_angle_gamma    94.26336680621436

_space_group_name_H-M_alt    "P 1"
_space_group_IT_number       1

loop_
  _space_group_symop_operation_xyz
  'x, y, z'

loop_
  _atom_site_type_symbol
  _atom_site_label
  _atom_site_symmetry_multiplicity
  _atom_site_fract_x
  _atom_site_fract_y
  _atom_site_fract_z
  _atom_site_occupancy
  Ca  Ca1       1.0  0.5694779036566615  0.049554167315363884  0.5884121228009462  1.0000
  Ca  Ca2       1.0  0.4864140022546053  0.1079284530133009  0.7719557825475931  1.0000
  P   P1        1.0  0.32879112800583243  0.45724035892635584  0.9219024088233709  1.0000
  P   P2        1.0  0.6423285100609064  0.38986320118419826  0.9983803080394864  1.0000
  H   H1        1.0  0.7536940856371075  0.12431791517883539  0.45113936194684356  1.0000
  H   H2        1.0  0.30719707487151027  0.8682935247197747  0.8187893033027649  1.0000
  H   H3        1.0  0.13709673495031893  0.6123883198015392  0.704980980604887  1.0000
  H   H4        1.0  0.9481241474859416  0.25143960205605254  0.7741170338122174  1.0000
  H   H5        1.0  0.988565081730485  0.4773753210902214  0.3476490080356598  1.0000
  H   H6        1.0  0.32298865413758904  0.5269476803950965  0.47765821125358343  1.0000
  H   H7        1.0  0.8386599747464061  0.48612216860055923  0.5420704865828156  1.0000
  H   H8        1.0  0.513014736585319  0.42883846210315824  0.7978861797600985  1.0000
  O   O1        1.0  0.7544547873549163  0.8978230557986535  0.9440449683461338  1.0000
  O   O2        1.0  0.6621672512901569  0.805494247644674  0.022386522527085617  1.0000
  O   O3        1.0  0.6404715676253545  0.39746448741061613  0.4647480699350126  1.0000
  O   O4        1.0  0.2570189108373597  0.8046686346642673  0.14656656701117754  1.0000
  O   O5        1.0  0.5350998253561556  0.020788848865777254  0.033881162758916616  1.0000
  O   O6        1.0  0.7221350594700198  0.9290456826856826  0.5887648509815335  1.0000
  O   O7        1.0  0.0201610864023678  0.24453268176876009  0.26777162542566657  1.0000
  O   O8        1.0  0.4424227416748181  0.36308958381414413  0.22572591295465827  1.0000
  O   O9        1.0  0.454748906835448  0.429029103834182  0.8596021764969919  1.0000
  O   O10       1.0  0.09120977518614382  0.5889564831741154  0.819061329588294  1.0000
  F   F1        1.0  0.7684205388650298  0.00033574365079402924  0.7798360111191869  1.0000
  F   F2        1.0  0.6879021396161988  0.7998753469437361  0.4103751424700022  1.0000
data_image183
_chemical_formula_structural       Ca2P2H8O10F2
_chemical_formula_sum              "Ca2 P2 H8 O10 F2"
_cell_length_a       8.748547242261026
_cell_length_b       6.5292717768421165
_cell_length_c       5.804229554730758
_cell_angle_alpha    118.85637513684739
_cell_angle_beta     110.64940913561757
_cell_angle_gamma    94.26336680621436

_space_group_name_H-M_alt    "P 1"
_space_group_IT_number       1

loop_
  _space_group_symop_operation_xyz
  'x, y, z'

loop_
  _atom_site_type_symbol
  _atom_site_label
  _atom_site_symmetry_multiplicity
  _atom_site_fract_x
  _atom_site_fract_y
  _atom_site_fract_z
  _atom_site_occupancy
  Ca  Ca1       1.0  0.2861380595713854  0.6266644820570946  0.2283654846251011  1.0000
  Ca  Ca2       1.0  0.6583254365250468  0.6778907217085361  0.9443457648158073  1.0000
  P   P1        1.0  0.531329782679677  0.7275662366300821  0.29996559768915176  1.0000
  P   P2        1.0  0.2653445149771869  0.19534471188671887  0.22775252582505345  1.0000
  H   H1        1.0  0.1400548869278282  0.9793140757828951  0.003122904454357922  1.0000
  H   H2        1.0  0.39794072369113564  0.5208858093246818  0.9255371568724513  1.0000
  H   H3        1.0  0.22092168405652046  0.2515902207233012  0.824952993541956  1.0000
  H   H4        1.0  0.597856164444238  0.3077400677429978  0.9219142517540604  1.0000
  H   H5        1.0  0.8812605813145638  0.7799324616789818  0.8304640501737595  1.0000
  H   H6        1.0  0.3140031397342682  0.7137540304102004  0.5207630102522671  1.0000
  H   H7        1.0  0.4759962512180209  0.9619806706905365  0.015256627462804317  1.0000
  H   H8        1.0  0.2862936584278941  0.07291676523163915  0.9509843643754721  1.0000
  O   O1        1.0  0.18662278959527612  0.46491836552741006  0.5197911821305752  1.0000
  O   O2        1.0  0.44239752859266446  0.48753644950920716  0.693401431577513  1.0000
  O   O3        1.0  0.14311705116051598  0.2902145301923156  0.8963429180439562  1.0000
  O   O4        1.0  0.2643234475981444  0.3192479577846825  0.1826740363612771  1.0000
  O   O5        1.0  0.8305459232069552  0.25705463252961636  0.13803992699831724  1.0000
  O   O6        1.0  0.6305654039315414  0.11608975174021907  0.42687798175029457  1.0000
  O   O7        1.0  0.7858932017988991  0.5477813789620996  0.08270705747418106  1.0000
  O   O8        1.0  0.7741044203285128  0.9001372833736241  0.8192586195655167  1.0000
  O   O9        1.0  0.3308941384893842  0.771405624691397  0.45087817779858597  1.0000
  O   O10       1.0  0.8613657805835828  0.7777803186327219  0.5508630461990833  1.0000
  F   F1        1.0  0.6686397278681397  0.8325304854661226  0.6138686833437532  1.0000
  F   F2        1.0  0.7692856367211789  0.4562861081212759  0.532097864896059  1.0000
data_image184
_chemical_formula_structural       Ca2P2H8O10F2
_chemical_formula_sum              "Ca2 P2 H8 O10 F2"
_cell_length_a       8.748547242261026
_cell_length_b       6.5292717768421165
_cell_length_c       5.804229554730758
_cell_angle_alpha    118.85637513684739
_cell_angle_beta     110.64940913561757
_cell_angle_gamma    94.26336680621436

_space_group_name_H-M_alt    "P 1"
_space_group_IT_number       1

loop_
  _space_group_symop_operation_xyz
  'x, y, z'

loop_
  _atom_site_type_symbol
  _atom_site_label
  _atom_site_symmetry_multiplicity
  _atom_site_fract_x
  _atom_site_fract_y
  _atom_site_fract_z
  _atom_site_occupancy
  Ca  Ca1       1.0  0.04587996378540993  0.6259797140955925  0.0643241386860609  1.0000
  Ca  Ca2       1.0  0.596340361982584  0.03580101951956749  0.31882675737142563  1.0000
  P   P1        1.0  0.3018756569363177  0.24830371141433716  0.6233257241547108  1.0000
  P   P2        1.0  0.8170203529298306  0.41311864252202213  0.832114958204329  1.0000
  H   H1        1.0  0.5964005242567509  0.37310248054564  0.10830766626168042  1.0000
  H   H2        1.0  0.2839055438525975  0.3045401135459542  0.5595466587692499  1.0000
  H   H3        1.0  0.7630921051604673  0.5457763490267098  0.3635603655129671  1.0000
  H   H4        1.0  0.5493162292987108  0.8663478250964545  0.4287740192376077  1.0000
  H   H5        1.0  0.29590519331395626  0.14360515028238297  0.2261018082499504  1.0000
  H   H6        1.0  0.9290318335406482  0.3709347159601748  0.9332458712160587  1.0000
  H   H7        1.0  0.08304087724536657  0.9100950844585896  0.4424577672034502  1.0000
  H   H8        1.0  0.28269279515370727  0.8585560349747539  0.7700439151376486  1.0000
  O   O1        1.0  0.08427651901729405  0.5528830341936555  0.8651378387585282  1.0000
  O   O2        1.0  0.31811655948331463  0.5327853882336058  0.18639362060639542  1.0000
  O   O3        1.0  0.31905574577103835  0.6364968966227025  0.379294236889109  1.0000
  O   O4        1.0  0.8496847047936171  0.24025939730927348  0.015630857087671757  1.0000
  O   O5        1.0  0.34795415494591  0.2582303509116173  0.8121724966913462  1.0000
  O   O6        1.0  0.7550974679907085  0.5987022065673955  0.11883896728977561  1.0000
  O   O7        1.0  0.9770775052311365  0.931802642531693  0.1827948410063982  1.0000
  O   O8        1.0  0.9520558094372973  0.4142263177782297  0.9055249528028071  1.0000
  O   O9        1.0  0.48628877359442413  0.031951380893588066  0.939149495010497  1.0000
  O   O10       1.0  0.7606713504937943  0.901193043217063  0.9054762404412031  1.0000
  F   F1        1.0  0.3029596796259284  0.09824131615459919  0.969920132542029  1.0000
  F   F2        1.0  0.26089974236674607  0.7350209541618824  0.031512731686234474  1.0000
data_image185
_chemical_formula_structural       Ca2P2H8O10F2
_chemical_formula_sum              "Ca2 P2 H8 O10 F2"
_cell_length_a       8.748547242261026
_cell_length_b       6.5292717768421165
_cell_length_c       5.804229554730758
_cell_angle_alpha    118.85637513684739
_cell_angle_beta     110.64940913561757
_cell_angle_gamma    94.26336680621436

_space_group_name_H-M_alt    "P 1"
_space_group_IT_number       1

loop_
  _space_group_symop_operation_xyz
  'x, y, z'

loop_
  _atom_site_type_symbol
  _atom_site_label
  _atom_site_symmetry_multiplicity
  _atom_site_fract_x
  _atom_site_fract_y
  _atom_site_fract_z
  _atom_site_occupancy
  Ca  Ca1       1.0  0.7093052696436644  0.6933841314166784  0.10708808060735464  1.0000
  Ca  Ca2       1.0  0.3772768974304199  0.6900105737149715  0.4013975244015455  1.0000
  P   P1        1.0  0.07713040104135871  0.41940211970359087  0.20658901892602444  1.0000
  P   P2        1.0  0.594709022436291  0.6278384383767843  0.5943961618468165  1.0000
  H   H1        1.0  0.46433153143152595  0.5251761730760336  0.03175970434676856  1.0000
  H   H2        1.0  0.3540747920051217  0.07394793629646301  0.6708696782588959  1.0000
  H   H3        1.0  0.9215151772368699  0.1711618034169078  0.32317193411290646  1.0000
  H   H4        1.0  0.7973527279682457  0.7946862537355628  0.5319414810510352  1.0000
  H   H5        1.0  0.34413003362715244  0.8760112002491951  0.02497114986181259  1.0000
  H   H6        1.0  0.9143899822374806  0.20414521638303995  0.6338184857740998  1.0000
  H   H7        1.0  0.027124769985675812  0.6120102554559708  0.38227811735123396  1.0000
  H   H8        1.0  0.9750575008802116  0.5731707978993654  0.6534944921731949  1.0000
  O   O1        1.0  0.45256175892427564  0.2360766447673086  0.39407984470017254  1.0000
  O   O2        1.0  0.8977060930646985  0.2566953612258658  0.08413125351216877  1.0000
  O   O3        1.0  0.8534173244997874  0.9055690788663924  0.6039021178730763  1.0000
  O   O4        1.0  0.4677846210543066  0.3763497322797775  0.8025366514921188  1.0000
  O   O5        1.0  0.8812601077370346  0.7820005961693823  0.3857554607093334  1.0000
  O   O6        1.0  0.3892563104745932  0.9309454147005454  0.8019639095291495  1.0000
  O   O7        1.0  0.5293754493759479  0.9329426647163928  0.3913197903893888  1.0000
  O   O8        1.0  0.04552709555719048  0.9094621478579938  0.7481633257120848  1.0000
  O   O9        1.0  0.15310169360600412  0.6588822579942644  0.43786835108767264  1.0000
  O   O10       1.0  0.7332742109138053  0.8172795316204429  0.8374717966653407  1.0000
  F   F1        1.0  0.27028238866478205  0.4855928085744381  0.957465129904449  1.0000
  F   F2        1.0  0.539444794296287  0.619903801009059  0.6885501816868782  1.0000
data_image186
_chemical_formula_structural       Ca2P2H8O10F2
_chemical_formula_sum              "Ca2 P2 H8 O10 F2"
_cell_length_a       8.748547242261026
_cell_length_b       6.5292717768421165
_cell_length_c       5.804229554730758
_cell_angle_alpha    118.85637513684739
_cell_angle_beta     110.64940913561757
_cell_angle_gamma    94.26336680621436

_space_group_name_H-M_alt    "P 1"
_space_group_IT_number       1

loop_
  _space_group_symop_operation_xyz
  'x, y, z'

loop_
  _atom_site_type_symbol
  _atom_site_label
  _atom_site_symmetry_multiplicity
  _atom_site_fract_x
  _atom_site_fract_y
  _atom_site_fract_z
  _atom_site_occupancy
  Ca  Ca1       1.0  0.058946721255779266  0.7012577559798956  0.6552094090729952  1.0000
  Ca  Ca2       1.0  0.2164277182891965  0.5606782902032137  0.35184452775865793  1.0000
  P   P1        1.0  0.8230170197784901  0.06915591564029455  0.3596368245780468  1.0000
  P   P2        1.0  0.46406316803768277  0.11380612850189209  0.34559245221316814  1.0000
  H   H1        1.0  0.23079571756534278  0.02385788783431053  0.366297269356437  1.0000
  H   H2        1.0  0.8423851523548365  0.10514180362224579  0.8295560479164124  1.0000
  H   H3        1.0  0.45363324182108045  0.9183467552065849  0.015060223639011383  1.0000
  H   H4        1.0  0.9483969965949655  0.7859434122801758  0.6290209561120719  1.0000
  H   H5        1.0  0.33600768633186817  0.3196326643228531  0.6798286065459251  1.0000
  H   H6        1.0  0.627353724790737  0.9241190357133746  0.6581862466409802  1.0000
  H   H7        1.0  0.6087417677044868  0.8033303320407867  0.8022258803248405  1.0000
  H   H8        1.0  0.18860601633787155  0.06690231896936893  0.48562444746494293  1.0000
  O   O1        1.0  0.9349186306353658  0.4187549472844694  0.23938225395977497  1.0000
  O   O2        1.0  0.5303354086790932  0.9797562696039677  0.13093297876912402  1.0000
  O   O3        1.0  0.851516740200168  0.2619909344939515  0.3517724053526763  1.0000
  O   O4        1.0  0.33036461018491536  0.6002688691951334  0.7181048206984997  1.0000
  O   O5        1.0  0.30169601645320654  0.35519535606727004  0.3593684253282845  1.0000
  O   O6        1.0  0.12342309986706823  0.24878875236026943  0.9080482758581638  1.0000
  O   O7        1.0  0.439545854984317  0.31270737340673804  0.44139192905277014  1.0000
  O   O8        1.0  0.6487621533451602  0.7147219690959901  0.3080669385381043  1.0000
  O   O9        1.0  0.5434516680834349  0.643684561830014  0.18798477700329386  1.0000
  O   O10       1.0  0.8737361474195495  0.08875349862501025  0.7106391810812056  1.0000
  F   F1        1.0  0.6740362383425236  0.7540791183710098  0.7770500120241195  1.0000
  F   F2        1.0  0.02210520056542009  0.70593436434865  0.30517913587391376  1.0000
data_image187
_chemical_formula_structural       Ca2P2H8O10F2
_chemical_formula_sum              "Ca2 P2 H8 O10 F2"
_cell_length_a       8.748547242261026
_cell_length_b       6.5292717768421165
_cell_length_c       5.804229554730758
_cell_angle_alpha    118.85637513684739
_cell_angle_beta     110.64940913561757
_cell_angle_gamma    94.26336680621436

_space_group_name_H-M_alt    "P 1"
_space_group_IT_number       1

loop_
  _space_group_symop_operation_xyz
  'x, y, z'

loop_
  _atom_site_type_symbol
  _atom_site_label
  _atom_site_symmetry_multiplicity
  _atom_site_fract_x
  _atom_site_fract_y
  _atom_site_fract_z
  _atom_site_occupancy
  Ca  Ca1       1.0  0.7828714540228248  0.9391380604356527  0.879284386523068  1.0000
  Ca  Ca2       1.0  0.14578978344798088  0.5147165432572365  0.5477883545681834  1.0000
  P   P1        1.0  0.33160301484167576  0.6793015506118536  0.9150769654661417  1.0000
  P   P2        1.0  0.6913576321676373  0.8121713995933533  0.5822679325938225  1.0000
  H   H1        1.0  0.702764411456883  0.34184195939451456  0.44256633543409407  1.0000
  H   H2        1.0  0.8047871049493551  0.7407083809375763  0.9392975568771362  1.0000
  H   H3        1.0  0.7247770512476563  0.7886329628527164  0.7371093817055225  1.0000
  H   H4        1.0  0.9257885357365012  0.4818123061559163  0.03432530607096851  1.0000
  H   H5        1.0  0.9545959196984768  0.3150785565376282  0.8547867685556412  1.0000
  H   H6        1.0  0.682873610407114  0.11538303783163428  0.6249816375784576  1.0000
  H   H7        1.0  0.4701438881456852  0.5615322068333626  0.34813051018863916  1.0000
  H   H8        1.0  0.6240225406363606  0.7329339180141687  0.1058235801756382  1.0000
  O   O1        1.0  0.880942753283307  0.20733370914240368  0.6237300513312221  1.0000
  O   O2        1.0  0.29013424587537884  0.42830898135434836  0.8689013129041996  1.0000
  O   O3        1.0  0.4147529299953021  0.17512262286618352  0.533004523764248  1.0000
  O   O4        1.0  0.023870510049164295  0.9863101597875357  0.06268614856526256  1.0000
  O   O5        1.0  0.9988070256076753  0.2230148776434362  0.7415046277455986  1.0000
  O   O6        1.0  0.6029258877388202  0.5184085885994136  0.6372884593438357  1.0000
  O   O7        1.0  0.5528888849366922  0.5724553510081023  0.27498237090185285  1.0000
  O   O8        1.0  0.3552543248515576  0.844865592662245  0.9170812503434718  1.0000
  O   O9        1.0  0.5244200351589825  0.3455315842293203  0.38488955138018355  1.0000
  O   O10       1.0  0.8478742018342018  0.4163590269163251  0.9719793191179633  1.0000
  F   F1        1.0  0.7615945553407073  0.5768779087811708  0.3456830976065248  1.0000
  F   F2        1.0  0.3277379390783608  0.11129589378833771  0.1788237914443016  1.0000
data_image188
_chemical_formula_structural       Ca2P2H8O10F2
_chemical_formula_sum              "Ca2 P2 H8 O10 F2"
_cell_length_a       8.748547242261026
_cell_length_b       6.5292717768421165
_cell_length_c       5.804229554730758
_cell_angle_alpha    118.85637513684739
_cell_angle_beta     110.64940913561757
_cell_angle_gamma    94.26336680621436

_space_group_name_H-M_alt    "P 1"
_space_group_IT_number       1

loop_
  _space_group_symop_operation_xyz
  'x, y, z'

loop_
  _atom_site_type_symbol
  _atom_site_label
  _atom_site_symmetry_multiplicity
  _atom_site_fract_x
  _atom_site_fract_y
  _atom_site_fract_z
  _atom_site_occupancy
  Ca  Ca1       1.0  0.5941272666677833  0.41425327584147453  0.7408535294234753  1.0000
  Ca  Ca2       1.0  0.714261612854898  0.7961762826889753  0.6881868280470371  1.0000
  P   P1        1.0  0.5495847854763269  0.1999388039112091  0.8401139508932829  1.0000
  P   P2        1.0  0.5796363661065698  0.866228099912405  0.9866099134087563  1.0000
  H   H1        1.0  0.4820325900800526  0.8695540139451623  0.764532113680616  1.0000
  H   H2        1.0  0.4442253615707159  0.8127331435680389  0.6343822479248047  1.0000
  H   H3        1.0  0.8190683983266354  0.4393110666424036  0.8834942132234573  1.0000
  H   H4        1.0  0.1947505446150899  0.9675086954375729  0.9780999921495095  1.0000
  H   H5        1.0  0.2816165592521429  0.44667331129312515  0.6253010258078575  1.0000
  H   H6        1.0  0.9444137092214078  0.5440060351975262  0.6540233180858195  1.0000
  H   H7        1.0  0.707079041749239  0.5857048481702805  0.46527829114347696  1.0000
  H   H8        1.0  0.8511241395026445  0.047820594161748886  0.1236470676958561  1.0000
  O   O1        1.0  0.27368407789617777  0.929904335149331  0.7793345814570785  1.0000
  O   O2        1.0  0.32648965818589204  0.8419548375532031  0.9373097418356338  1.0000
  O   O3        1.0  0.38144776005356107  0.1669963735039346  0.9115672742482275  1.0000
  O   O4        1.0  0.9250776793342084  0.7763213012367487  0.5017517758533359  1.0000
  O   O5        1.0  0.054030705243349075  0.9999389448203146  0.04719738755375147  1.0000
  O   O6        1.0  0.7549084014026448  0.28084018314257264  0.6623966435436159  1.0000
  O   O7        1.0  0.9473301818652544  0.8865574896335602  0.5913696982897818  1.0000
  O   O8        1.0  0.09127892216201872  0.32144582946784794  0.1587764355354011  1.0000
  O   O9        1.0  0.5700892537133768  0.24133989354595542  0.8694311491417466  1.0000
  O   O10       1.0  0.06910262480960228  0.41390421288087964  0.8624717672355473  1.0000
  F   F1        1.0  0.8487878302112222  0.49609039537608624  0.46320165041834116  1.0000
  F   F2        1.0  0.5687777980929241  0.6761264465749264  0.393616646528244  1.0000
data_image189
_chemical_formula_structural       Ca2P2H8O10F2
_chemical_formula_sum              "Ca2 P2 H8 O10 F2"
_cell_length_a       8.748547242261026
_cell_length_b       6.5292717768421165
_cell_length_c       5.804229554730758
_cell_angle_alpha    118.85637513684739
_cell_angle_beta     110.64940913561757
_cell_angle_gamma    94.26336680621436

_space_group_name_H-M_alt    "P 1"
_space_group_IT_number       1

loop_
  _space_group_symop_operation_xyz
  'x, y, z'

loop_
  _atom_site_type_symbol
  _atom_site_label
  _atom_site_symmetry_multiplicity
  _atom_site_fract_x
  _atom_site_fract_y
  _atom_site_fract_z
  _atom_site_occupancy
  Ca  Ca1       1.0  0.3441142104566097  0.5844616591930389  0.16487017553299665  1.0000
  Ca  Ca2       1.0  0.9968819580972195  0.058271875604987144  0.5630770856514573  1.0000
  P   P1        1.0  0.9387149699032307  0.6890383642166853  0.6044169999659061  1.0000
  P   P2        1.0  0.9870678060688078  0.4927154816687107  0.1303673293441534  1.0000
  H   H1        1.0  0.22305150446482003  0.8103583650663495  0.8778059305623174  1.0000
  H   H2        1.0  0.3148619681596756  0.596979096531868  0.4075058102607727  1.0000
  H   H3        1.0  0.91630625911057  0.28566310182213783  0.9070876836776733  1.0000
  H   H4        1.0  0.9197847712785006  0.6818756482098252  0.4999876506626606  1.0000
  H   H5        1.0  0.4129295814782381  0.16970310360193253  0.6351134553551674  1.0000
  H   H6        1.0  0.2612308409297839  0.5764047638513148  0.7722201370634139  1.0000
  H   H7        1.0  0.9634640580043197  0.08578478917479515  0.44822181575000286  1.0000
  H   H8        1.0  0.3732928968966007  0.3676443938165903  0.8305631540715694  1.0000
  O   O1        1.0  0.6898096522781998  0.09459874010644853  0.018484621308743954  1.0000
  O   O2        1.0  0.10954345910431584  0.23774222756037489  0.28091959409357514  1.0000
  O   O3        1.0  0.48802478481957223  0.693841896194499  0.5374207842105534  1.0000
  O   O4        1.0  0.9356747639831156  0.17239996930584311  0.05899754865095019  1.0000
  O   O5        1.0  0.7299053659662604  0.3365049036219716  0.4892115956172347  1.0000
  O   O6        1.0  0.47739108867244795  0.47476944071240723  0.9092804780229926  1.0000
  O   O7        1.0  0.5411193667969201  0.9337614858523011  0.6868709633126855  1.0000
  O   O8        1.0  0.9292981878388673  0.7176710069179535  0.6483090287074447  1.0000
  O   O9        1.0  0.8246798483596649  0.09823709074407816  0.14801667207211722  1.0000
  O   O10       1.0  0.7563066730217542  0.22497075609862804  0.4439056175760925  1.0000
  F   F1        1.0  0.32801175583153963  0.4280782137066126  0.9057162581011653  1.0000
  F   F2        1.0  0.15815897093852982  0.4138806527480483  0.744399506598711  1.0000
data_image190
_chemical_formula_structural       Ca2P2H8O10F2
_chemical_formula_sum              "Ca2 P2 H8 O10 F2"
_cell_length_a       8.748547242261026
_cell_length_b       6.5292717768421165
_cell_length_c       5.804229554730758
_cell_angle_alpha    118.85637513684739
_cell_angle_beta     110.64940913561757
_cell_angle_gamma    94.26336680621436

_space_group_name_H-M_alt    "P 1"
_space_group_IT_number       1

loop_
  _space_group_symop_operation_xyz
  'x, y, z'

loop_
  _atom_site_type_symbol
  _atom_site_label
  _atom_site_symmetry_multiplicity
  _atom_site_fract_x
  _atom_site_fract_y
  _atom_site_fract_z
  _atom_site_occupancy
  Ca  Ca1       1.0  0.8626007447019219  0.2843149695545435  0.9884263286367059  1.0000
  Ca  Ca2       1.0  0.3144635963253677  0.030714072287082672  0.11371435690671206  1.0000
  P   P1        1.0  0.16560008469969034  0.8102545589208603  0.4103879202157259  1.0000
  P   P2        1.0  0.4170786461327225  0.7172004878520966  0.05972136929631233  1.0000
  H   H1        1.0  0.25413879565894604  0.5392998191528022  0.7025578392203897  1.0000
  H   H2        1.0  0.3653249479830265  0.993888795375824  0.1782016158103943  1.0000
  H   H3        1.0  0.7880743658170104  0.6699351593852043  0.06417763978242874  1.0000
  H   H4        1.0  0.0048258425667881966  0.14060828438960016  0.04893928667297587  1.0000
  H   H5        1.0  0.41429512575268745  0.02619124948978424  0.6337939649820328  1.0000
  H   H6        1.0  0.9439360697288066  0.8052784283645451  0.6552042909897864  1.0000
  H   H7        1.0  0.15026366245001554  0.45394372940063477  0.13350468780845404  1.0000
  H   H8        1.0  0.10854043997824192  0.2821580767631531  0.5171214938163757  1.0000
  O   O1        1.0  0.11856123083271086  0.8227393392589875  0.8093814207240939  1.0000
  O   O2        1.0  0.055798451394366566  0.399089154554531  0.2949544125731336  1.0000
  O   O3        1.0  0.7002765647412161  0.935938797541894  0.40860477602109313  1.0000
  O   O4        1.0  0.33162282197736204  0.9471701947040856  0.4922238430008292  1.0000
  O   O5        1.0  0.36040002619847655  0.3987783086486161  0.6103862803429365  1.0000
  O   O6        1.0  0.5920932213775814  0.329069665633142  0.44981152727268636  1.0000
  O   O7        1.0  0.3182154927053489  0.26931848260574043  0.6941624993924052  1.0000
  O   O8        1.0  0.06246320786885917  0.9982982343062758  0.32762384274974465  1.0000
  O   O9        1.0  0.6042596594779752  0.6039636987261474  0.3335430075239856  1.0000
  O   O10       1.0  0.9624044225201942  0.5919724008999765  0.5897999913431704  1.0000
  F   F1        1.0  0.46034329012036324  0.832685237750411  0.36272854590788484  1.0000
  F   F2        1.0  0.5930302863125689  0.27636539936065674  0.47764972783625126  1.0000
data_image191
_chemical_formula_structural       Ca2P2H8O10F2
_chemical_formula_sum              "Ca2 P2 H8 O10 F2"
_cell_length_a       8.748547242261026
_cell_length_b       6.5292717768421165
_cell_length_c       5.804229554730758
_cell_angle_alpha    118.85637513684739
_cell_angle_beta     110.64940913561757
_cell_angle_gamma    94.26336680621436

_space_group_name_H-M_alt    "P 1"
_space_group_IT_number       1

loop_
  _space_group_symop_operation_xyz
  'x, y, z'

loop_
  _atom_site_type_symbol
  _atom_site_label
  _atom_site_symmetry_multiplicity
  _atom_site_fract_x
  _atom_site_fract_y
  _atom_site_fract_z
  _atom_site_occupancy
  Ca  Ca1       1.0  0.031221797689795494  0.8538305293768644  0.7115046316757798  1.0000
  Ca  Ca2       1.0  0.16161272255703807  0.4170064218342304  0.23917664401233196  1.0000
  P   P1        1.0  0.3481077617034316  0.48492343723773956  0.7353989910334349  1.0000
  P   P2        1.0  0.34247326804324985  0.5238657221198082  0.6230359487235546  1.0000
  H   H1        1.0  0.8805046945344657  0.6160900550894439  0.3153081005439162  1.0000
  H   H2        1.0  0.7856308780610561  0.6888241916894913  0.7125076651573181  1.0000
  H   H3        1.0  0.6574987364001572  0.42931103706359863  0.2368972897529602  1.0000
  H   H4        1.0  0.1000906340777874  0.2570466398028657  0.12722752121044323  1.0000
  H   H5        1.0  0.6721267886459827  0.25698544830083847  0.8719964101910591  1.0000
  H   H6        1.0  0.7205033146310598  0.7152261435985565  0.6808251650072634  1.0000
  H   H7        1.0  0.27209341898560524  0.9678201638162136  0.8770324997603893  1.0000
  H   H8        1.0  0.0978669123724103  0.7567993849515915  0.662885844707489  1.0000
  O   O1        1.0  0.08135332353413105  0.7268941934744362  0.978580032940954  1.0000
  O   O2        1.0  0.27628087657649303  0.5626097349449992  0.6916526333370712  1.0000
  O   O3        1.0  0.49080671571573475  0.8865223785978742  0.24255770636955276  1.0000
  O   O4        1.0  0.2669905631337315  0.9727103188633919  0.2904957556165755  1.0000
  O   O5        1.0  0.026994488667696714  0.13992287078872323  0.7448645560070872  1.0000
  O   O6        1.0  0.7595107965171337  0.33071748237125576  0.06209614989347756  1.0000
  O   O7        1.0  0.5204132714425214  0.1057866585906595  0.6355302832089365  1.0000
  O   O8        1.0  0.9084610409336165  0.6939400280825794  0.9092482081614435  1.0000
  O   O9        1.0  0.9812152123195119  0.8255024084355682  0.8625738120754249  1.0000
  O   O10       1.0  0.4748803732509259  0.8365625832229853  0.1671502348035574  1.0000
  F   F1        1.0  0.9012105893343687  0.910682613030076  0.8455009427852929  1.0000
  F   F2        1.0  0.4742390880128369  0.9080498358234763  0.465816855430603  1.0000
data_image192
_chemical_formula_structural       Ca2P2H8O10F2
_chemical_formula_sum              "Ca2 P2 H8 O10 F2"
_cell_length_a       8.748547242261026
_cell_length_b       6.5292717768421165
_cell_length_c       5.804229554730758
_cell_angle_alpha    118.85637513684739
_cell_angle_beta     110.64940913561757
_cell_angle_gamma    94.26336680621436

_space_group_name_H-M_alt    "P 1"
_space_group_IT_number       1

loop_
  _space_group_symop_operation_xyz
  'x, y, z'

loop_
  _atom_site_type_symbol
  _atom_site_label
  _atom_site_symmetry_multiplicity
  _atom_site_fract_x
  _atom_site_fract_y
  _atom_site_fract_z
  _atom_site_occupancy
  Ca  Ca1       1.0  0.5514181694015861  0.5725199431180954  0.07902785483747721  1.0000
  Ca  Ca2       1.0  0.46073451125994325  0.6248866729438305  0.4199321586638689  1.0000
  P   P1        1.0  0.2800520732998848  0.5434854682534933  0.9785291571170092  1.0000
  P   P2        1.0  0.3464313284493983  0.22066567838191986  0.9735106341540813  1.0000
  H   H1        1.0  0.4359025740996003  0.33028558269143105  0.5669161947444081  1.0000
  H   H2        1.0  0.9482136219739914  0.49706870317459106  0.4585351347923279  1.0000
  H   H3        1.0  0.7560061193071306  0.006339149549603462  0.5529576241970062  1.0000
  H   H4        1.0  0.21089894231408834  0.46715356409549713  0.4091799925081432  1.0000
  H   H5        1.0  0.624650951474905  0.8146174997091293  0.4639715626835823  1.0000
  H   H6        1.0  0.2344088030513376  0.014535908587276936  0.2473762957379222  1.0000
  H   H7        1.0  0.9174636341631413  0.649075698107481  0.8585476567968726  1.0000
  H   H8        1.0  0.712169598788023  0.467595923691988  0.8334679417312145  1.0000
  O   O1        1.0  0.9748456198722124  0.8179205053020269  0.3331875130534172  1.0000
  O   O2        1.0  0.7727246901922626  0.7616312616155483  0.19704556702345144  1.0000
  O   O3        1.0  0.20494571068388723  0.7883104303036816  0.2778788834257284  1.0000
  O   O4        1.0  0.8048148965463042  0.6762560326606035  0.049183479975908995  1.0000
  O   O5        1.0  0.12098765140399337  0.7965254611335695  0.006135584786534309  1.0000
  O   O6        1.0  0.8720870171673596  0.7512909932993352  0.6092770576942712  1.0000
  O   O7        1.0  0.371219970023958  0.5428684144280851  0.39710998185910285  1.0000
  O   O8        1.0  0.1268297404749319  0.124642115784809  0.5310901538468897  1.0000
  O   O9        1.0  0.6734950773534365  0.46188836451619864  0.4548792156856507  1.0000
  O   O10       1.0  0.17404781212098897  0.28734421031549573  0.26955551328137517  1.0000
  F   F1        1.0  0.8044821647927165  0.7399312891066074  0.623984488658607  1.0000
  F   F2        1.0  0.7980233174748719  0.18409800063818693  0.2733445465564728  1.0000
data_image193
_chemical_formula_structural       Ca2P2H8O10F2
_chemical_formula_sum              "Ca2 P2 H8 O10 F2"
_cell_length_a       8.748547242261026
_cell_length_b       6.5292717768421165
_cell_length_c       5.804229554730758
_cell_angle_alpha    118.85637513684739
_cell_angle_beta     110.64940913561757
_cell_angle_gamma    94.26336680621436

_space_group_name_H-M_alt    "P 1"
_space_group_IT_number       1

loop_
  _space_group_symop_operation_xyz
  'x, y, z'

loop_
  _atom_site_type_symbol
  _atom_site_label
  _atom_site_symmetry_multiplicity
  _atom_site_fract_x
  _atom_site_fract_y
  _atom_site_fract_z
  _atom_site_occupancy
  Ca  Ca1       1.0  0.9432727796956897  0.09509858675301075  0.7889420287683606  1.0000
  Ca  Ca2       1.0  0.8909579501487315  0.9975045491009951  0.05981830134987831  1.0000
  P   P1        1.0  0.6878889501094818  0.01060507446527481  0.6799350753426552  1.0000
  P   P2        1.0  0.8365087320562452  0.8349772095680237  0.8794667553156614  1.0000
  H   H1        1.0  0.7543050019303337  0.35972415236756206  0.8587201829068363  1.0000
  H   H2        1.0  0.7664233185350895  0.008697748184204102  0.25920653343200684  1.0000
  H   H3        1.0  0.23901783907786012  0.9295079298317432  0.05671419948339462  1.0000
  H   H4        1.0  0.5540714883245528  0.7171628102660179  0.9417598657310009  1.0000
  H   H5        1.0  0.4501827247440815  0.012152262032032013  0.4429313838481903  1.0000
  H   H6        1.0  0.8669976296368986  0.06302034482359886  0.8491742983460426  1.0000
  H   H7        1.0  0.0732823321595788  0.5175265781581402  0.40255308616906404  1.0000
  H   H8        1.0  0.03944233059883118  0.6005497593432665  0.23341142013669014  1.0000
  O   O1        1.0  0.9744837838225067  0.32983743492513895  0.9508479200303555  1.0000
  O   O2        1.0  0.39065042276342865  0.3322108433349058  0.8788413368893089  1.0000
  O   O3        1.0  0.33363228827147395  0.42267220315989107  0.3080418642057339  1.0000
  O   O4        1.0  0.17653643526136875  0.7876206398941576  0.04395872028544545  1.0000
  O   O5        1.0  0.23432075325399637  0.9593037418089807  0.8990463521331549  1.0000
  O   O6        1.0  0.6536833748104982  0.8975232765078545  0.8454740243032575  1.0000
  O   O7        1.0  0.6152885013725609  0.7635594559833407  0.4772616431582719  1.0000
  O   O8        1.0  0.6952297377865762  0.1470843362621963  0.5984180709347129  1.0000
  O   O9        1.0  0.10080983734223992  0.2953704413957894  0.2967630358180031  1.0000
  O   O10       1.0  0.014315088308649138  0.9584622727707028  0.13991755666211247  1.0000
  F   F1        1.0  0.14427338913083076  0.10224777646362782  0.3820988691877574  1.0000
  F   F2        1.0  0.4835330828791484  0.3816086333245039  0.6565155200660229  1.0000
data_image194
_chemical_formula_structural       Ca2P2H8O10F2
_chemical_formula_sum              "Ca2 P2 H8 O10 F2"
_cell_length_a       8.748547242261026
_cell_length_b       6.5292717768421165
_cell_length_c       5.804229554730758
_cell_angle_alpha    118.85637513684739
_cell_angle_beta     110.64940913561757
_cell_angle_gamma    94.26336680621436

_space_group_name_H-M_alt    "P 1"
_space_group_IT_number       1

loop_
  _space_group_symop_operation_xyz
  'x, y, z'

loop_
  _atom_site_type_symbol
  _atom_site_label
  _atom_site_symmetry_multiplicity
  _atom_site_fract_x
  _atom_site_fract_y
  _atom_site_fract_z
  _atom_site_occupancy
  Ca  Ca1       1.0  0.0028469860553741455  0.7713797800242901  0.8891147067770362  1.0000
  Ca  Ca2       1.0  0.9491125275380909  0.4582945629954338  0.37198063638061285  1.0000
  P   P1        1.0  0.3732745526358485  0.5829741638153791  0.07549907453358173  1.0000
  P   P2        1.0  0.32755899615585804  0.5285027138888836  0.6958578322082758  1.0000
  H   H1        1.0  0.021742596640251577  0.1276050703600049  0.7402325998991728  1.0000
  H   H2        1.0  0.30679675191640854  0.6380061358213425  0.9455586075782776  1.0000
  H   H3        1.0  0.6385732213966548  0.18337067030370235  0.8687740787863731  1.0000
  H   H4        1.0  0.4991544191725552  0.5463263103738427  0.2904722011880949  1.0000
  H   H5        1.0  0.07350117340683937  0.33431030064821243  0.9382364526391029  1.0000
  H   H6        1.0  0.8430754221044481  0.49417462199926376  0.6337202400900424  1.0000
  H   H7        1.0  0.7549145594239235  0.8828057572245598  0.6940388474613428  1.0000
  H   H8        1.0  0.7875543693080544  0.2933500148355961  0.534140732139349  1.0000
  O   O1        1.0  0.02932225656695664  0.9765953493479174  0.5500194379128516  1.0000
  O   O2        1.0  0.6053338796846219  0.17180982197169214  0.671445591506199  1.0000
  O   O3        1.0  0.8682928568960051  0.6025018693180755  0.12036979370896006  1.0000
  O   O4        1.0  0.5821223001694307  0.16180347930639982  0.5927615654654801  1.0000
  O   O5        1.0  0.9987950124777853  0.7035821871832013  0.2977798357605934  1.0000
  O   O6        1.0  0.038786857563536614  0.6552029470913112  0.4857280757278204  1.0000
  O   O7        1.0  0.8553631036484148  0.5292545512784272  0.9802513769827783  1.0000
  O   O8        1.0  0.32992410787846893  0.330511390697211  0.5586582836695015  1.0000
  O   O9        1.0  0.4037303407676518  0.23936349269933999  0.9872498245676979  1.0000
  O   O10       1.0  0.4722229186736513  0.24310150183737278  0.9649941534735262  1.0000
  F   F1        1.0  0.234520030207932  0.9362556524574757  0.09905654657632113  1.0000
  F   F2        1.0  0.167566962831188  0.4681543558835983  0.3405636139214039  1.0000
data_image195
_chemical_formula_structural       Ca2P2H8O10F2
_chemical_formula_sum              "Ca2 P2 H8 O10 F2"
_cell_length_a       8.748547242261026
_cell_length_b       6.5292717768421165
_cell_length_c       5.804229554730758
_cell_angle_alpha    118.85637513684739
_cell_angle_beta     110.64940913561757
_cell_angle_gamma    94.26336680621436

_space_group_name_H-M_alt    "P 1"
_space_group_IT_number       1

loop_
  _space_group_symop_operation_xyz
  'x, y, z'

loop_
  _atom_site_type_symbol
  _atom_site_label
  _atom_site_symmetry_multiplicity
  _atom_site_fract_x
  _atom_site_fract_y
  _atom_site_fract_z
  _atom_site_occupancy
  Ca  Ca1       1.0  0.7805888298898935  0.880802858620882  0.7284903265535831  1.0000
  Ca  Ca2       1.0  0.06032123789191246  0.7998765986412764  0.4427047483623028  1.0000
  P   P1        1.0  0.23782940488308668  0.55216184258461  0.5833246689289808  1.0000
  P   P2        1.0  0.6210366408340633  0.19215117394924164  0.3964130003005266  1.0000
  H   H1        1.0  0.14079580316320062  0.4002654296346009  0.7108518017921597  1.0000
  H   H2        1.0  0.6421260833740234  0.514467790722847  0.8096683621406555  1.0000
  H   H3        1.0  0.9556773952208459  0.12407077848911285  0.2266404666006565  1.0000
  H   H4        1.0  0.8924537487328053  0.7579904240556061  0.14541773684322834  1.0000
  H   H5        1.0  0.46813663095235825  0.8717690259218216  0.7078645527362823  1.0000
  H   H6        1.0  0.4372241774108261  0.9914930919185281  0.5422376408241689  1.0000
  H   H7        1.0  0.7459506206214428  0.6775111891329288  0.08203629963099957  1.0000
  H   H8        1.0  0.9511358356103301  0.04049382358789444  0.43065691366791725  1.0000
  O   O1        1.0  0.0582050746306777  0.793672566593159  0.6932432544417679  1.0000
  O   O2        1.0  0.028876305259473156  0.29569004016229883  0.22494793028454296  1.0000
  O   O3        1.0  0.8484822836253443  0.3977584084495902  0.1947768487589201  1.0000
  O   O4        1.0  0.3447207163553685  0.8725913306698203  0.027639655396342278  1.0000
  O   O5        1.0  0.8288145484402776  0.27878092462196946  0.6890318668447435  1.0000
  O   O6        1.0  0.05450417520478368  0.11428962368518114  0.4999643969349563  1.0000
  O   O7        1.0  0.18074474309105426  0.6365569571498781  0.811905472073704  1.0000
  O   O8        1.0  0.7173653581412509  0.19538192520849407  0.28429453168064356  1.0000
  O   O9        1.0  0.9562403792515397  0.4856205645482987  0.19389454880729318  1.0000
  O   O10       1.0  0.2916744102258235  0.874142010230571  0.31921571120619774  1.0000
  F   F1        1.0  0.125371971167624  0.3897667024284601  0.6176341834943742  1.0000
  F   F2        1.0  0.11835219286149368  0.7370592122897506  0.9348560348153114  1.0000
data_image196
_chemical_formula_structural       Ca2P2H8O10F2
_chemical_formula_sum              "Ca2 P2 H8 O10 F2"
_cell_length_a       8.748547242261026
_cell_length_b       6.5292717768421165
_cell_length_c       5.804229554730758
_cell_angle_alpha    118.85637513684739
_cell_angle_beta     110.64940913561757
_cell_angle_gamma    94.26336680621436

_space_group_name_H-M_alt    "P 1"
_space_group_IT_number       1

loop_
  _space_group_symop_operation_xyz
  'x, y, z'

loop_
  _atom_site_type_symbol
  _atom_site_label
  _atom_site_symmetry_multiplicity
  _atom_site_fract_x
  _atom_site_fract_y
  _atom_site_fract_z
  _atom_site_occupancy
  Ca  Ca1       1.0  0.4733287673443556  0.24622806161642075  0.008828358724713326  1.0000
  Ca  Ca2       1.0  0.35925187543034554  0.939661517739296  0.8378981119021773  1.0000
  P   P1        1.0  0.16774896066635847  0.5444024670869112  0.6479607485234737  1.0000
  P   P2        1.0  0.6810985058546066  0.14257904514670372  0.715039785951376  1.0000
  H   H1        1.0  0.7862555107567459  0.6013261354528368  0.11832988611422479  1.0000
  H   H2        1.0  0.6954553611576557  0.46754178404808044  0.18107199668884277  1.0000
  H   H3        1.0  0.4382125148549676  0.04885341599583626  0.8876745104789734  1.0000
  H   H4        1.0  0.7064055353403091  0.9104628460481763  0.9111131834797561  1.0000
  H   H5        1.0  0.04125072620809078  0.47651635855436325  0.09007710218429565  1.0000
  H   H6        1.0  0.23852831940166652  0.9005911010317504  0.9104896667413414  1.0000
  H   H7        1.0  0.6074516829103231  0.6235768087208271  0.6634674556553364  1.0000
  H   H8        1.0  0.6004360914230347  0.3410870246589184  0.5321228802204132  1.0000
  O   O1        1.0  0.27881923504173756  0.43648045300506055  0.06677928054705262  1.0000
  O   O2        1.0  0.3599712943250779  0.37522662669653073  0.8068215875246096  1.0000
  O   O3        1.0  0.9997723265914829  0.45855929132085294  0.6136287919580354  1.0000
  O   O4        1.0  0.7577543908264488  0.4823707574978471  0.8987808958627284  1.0000
  O   O5        1.0  0.3095815540291369  0.8551979400217533  0.6691680606454611  1.0000
  O   O6        1.0  0.8519799034111202  0.2838960592634976  0.9821879034861922  1.0000
  O   O7        1.0  0.7187405863078311  0.349651291500777  0.9129093347582966  1.0000
  O   O8        1.0  0.3736866811523214  0.2742428011260927  0.4035837985575199  1.0000
  O   O9        1.0  0.9391589058795944  0.45745775871910155  0.9890461097238585  1.0000
  O   O10       1.0  0.5904455256531946  0.6126806195825338  0.6816996429115534  1.0000
  F   F1        1.0  0.9177692634984851  0.13863931223750114  0.971566658699885  1.0000
  F   F2        1.0  0.7071283592958935  0.2233915627002716  0.7441454250365496  1.0000
data_image197
_chemical_formula_structural       Ca2P2H8O10F2
_chemical_formula_sum              "Ca2 P2 H8 O10 F2"
_cell_length_a       8.748547242261026
_cell_length_b       6.5292717768421165
_cell_length_c       5.804229554730758
_cell_angle_alpha    118.85637513684739
_cell_angle_beta     110.64940913561757
_cell_angle_gamma    94.26336680621436

_space_group_name_H-M_alt    "P 1"
_space_group_IT_number       1

loop_
  _space_group_symop_operation_xyz
  'x, y, z'

loop_
  _atom_site_type_symbol
  _atom_site_label
  _atom_site_symmetry_multiplicity
  _atom_site_fract_x
  _atom_site_fract_y
  _atom_site_fract_z
  _atom_site_occupancy
  Ca  Ca1       1.0  0.8016858333721757  0.35451091080904007  0.2164400378242135  1.0000
  Ca  Ca2       1.0  0.4949373062700033  0.40416510216891766  0.020627697929739952  1.0000
  P   P1        1.0  0.844619857147336  0.8511571511626244  0.5248214490711689  1.0000
  P   P2        1.0  0.8513842509128153  0.2703281529247761  0.8922936450690031  1.0000
  H   H1        1.0  0.9245699829189107  0.04743277421221137  0.6371209973003715  1.0000
  H   H2        1.0  0.01891213282942772  0.16157643496990204  0.6335390210151672  1.0000
  H   H3        1.0  0.4190753009170294  0.20558813400566578  0.29003438726067543  1.0000
  H   H4        1.0  0.8587238974869251  0.9143011211417615  0.41697510005906224  1.0000
  H   H5        1.0  0.4434367436915636  0.4948083534836769  0.024881526827812195  1.0000
  H   H6        1.0  0.21296009956859052  0.469377851113677  0.8825940331444144  1.0000
  H   H7        1.0  0.2157410616055131  0.06321588531136513  0.09590309765189886  1.0000
  H   H8        1.0  0.9543904131278396  0.036645468324422836  0.1667889729142189  1.0000
  O   O1        1.0  0.3985633396077901  0.002731064218096435  0.5924575631506741  1.0000
  O   O2        1.0  0.019345095308381133  0.2227239981875755  0.026640148571459576  1.0000
  O   O3        1.0  0.25757593950402224  0.7539925979799591  0.5326645652530715  1.0000
  O   O4        1.0  0.1470041925786063  0.521835891995579  0.5235355645418167  1.0000
  O   O5        1.0  0.5809358805418015  0.29897911101579666  0.5187502377666533  1.0000
  O   O6        1.0  0.6281906822696328  0.4365170644596219  0.7846826643217355  1.0000
  O   O7        1.0  0.9196044845448341  0.17247582133859396  0.8003054142463952  1.0000
  O   O8        1.0  0.537368829594925  0.7333735702559352  0.5197043363004923  1.0000
  O   O9        1.0  0.18195014039520174  0.43383090454153717  0.7057103265542537  1.0000
  O   O10       1.0  0.32991831842809916  0.9272586922161281  0.45266825519502163  1.0000
  F   F1        1.0  0.3798952382057905  0.8951769433915615  0.8360478156246245  1.0000
  F   F2        1.0  0.9151369396131486  0.24388608988374472  0.01464850828051567  1.0000
data_image198
_chemical_formula_structural       Ca2P2H8O10F2
_chemical_formula_sum              "Ca2 P2 H8 O10 F2"
_cell_length_a       8.748547242261026
_cell_length_b       6.5292717768421165
_cell_length_c       5.804229554730758
_cell_angle_alpha    118.85637513684739
_cell_angle_beta     110.64940913561757
_cell_angle_gamma    94.26336680621436

_space_group_name_H-M_alt    "P 1"
_space_group_IT_number       1

loop_
  _space_group_symop_operation_xyz
  'x, y, z'

loop_
  _atom_site_type_symbol
  _atom_site_label
  _atom_site_symmetry_multiplicity
  _atom_site_fract_x
  _atom_site_fract_y
  _atom_site_fract_z
  _atom_site_occupancy
  Ca  Ca1       1.0  0.14262390322983265  0.768945125862956  0.6894846940413117  1.0000
  Ca  Ca2       1.0  0.05662151100113988  0.5927542597055435  0.9306686278432608  1.0000
  P   P1        1.0  0.004468145780265331  0.6419972535222769  0.8667059186846018  1.0000
  P   P2        1.0  0.20963866682723165  0.6665230914950371  0.9668884370476007  1.0000
  H   H1        1.0  0.7662640387425199  0.2043366925790906  0.7742882643360645  1.0000
  H   H2        1.0  0.6115997098386288  0.7968473136425018  0.7172316908836365  1.0000
  H   H3        1.0  0.8677293239161372  0.09584164619445801  0.7266198359429836  1.0000
  H   H4        1.0  0.21377119980752468  0.6952543323859572  0.04005114152096212  1.0000
  H   H5        1.0  0.5200336128473282  0.5766496360301971  0.690720371901989  1.0000
  H   H6        1.0  0.16654006717726588  0.8531530345790088  0.988058790564537  1.0000
  H   H7        1.0  0.9025968536734581  0.49051864817738533  0.9969821479171515  1.0000
  H   H8        1.0  0.4409236116334796  0.5804452206939459  0.4354090429842472  1.0000
  O   O1        1.0  0.6488237602170557  0.638371147972066  0.9816045952029526  1.0000
  O   O2        1.0  0.1726011589053087  0.13417758943978697  0.9147627279162407  1.0000
  O   O3        1.0  0.8836331039274228  0.22091689228545874  0.5248438708149479  1.0000
  O   O4        1.0  0.20775729476008564  0.7392977722920477  0.6112600103951991  1.0000
  O   O5        1.0  0.55821711756289  0.05254840571433306  0.6218553180806339  1.0000
  O   O6        1.0  0.883652311633341  0.9059748114086688  0.5113134128041565  1.0000
  O   O7        1.0  0.1708822519867681  0.3431360675022006  0.4417176360730082  1.0000
  O   O8        1.0  0.20073144568596035  0.8801713942084461  0.4755571596324444  1.0000
  O   O9        1.0  0.9199048575246707  0.06957507715560496  0.885388265713118  1.0000
  O   O10       1.0  0.157438667214592  0.10926922922953963  0.5359149393625557  1.0000
  F   F1        1.0  0.6708525950089097  0.43035848066210747  0.3150066926609725  1.0000
  F   F2        1.0  0.7533162190811709  0.7147096712142229  0.6364834886044264  1.0000
data_image199
_chemical_formula_structural       Ca2P2H8O10F2
_chemical_formula_sum              "Ca2 P2 H8 O10 F2"
_cell_length_a       8.748547242261026
_cell_length_b       6.5292717768421165
_cell_length_c       5.804229554730758
_cell_angle_alpha    118.85637513684739
_cell_angle_beta     110.64940913561757
_cell_angle_gamma    94.26336680621436

_space_group_name_H-M_alt    "P 1"
_space_group_IT_number       1

loop_
  _space_group_symop_operation_xyz
  'x, y, z'

loop_
  _atom_site_type_symbol
  _atom_site_label
  _atom_site_symmetry_multiplicity
  _atom_site_fract_x
  _atom_site_fract_y
  _atom_site_fract_z
  _atom_site_occupancy
  Ca  Ca1       1.0  0.5245251199230552  0.5436358880251646  0.9092030413448811  1.0000
  Ca  Ca2       1.0  0.3408746342174709  0.8546739425510168  0.852680305019021  1.0000
  P   P1        1.0  0.3935484532266855  0.6809864733368158  0.8467507977038622  1.0000
  P   P2        1.0  0.6541021429002285  0.4615639001131058  0.2439865916967392  1.0000
  H   H1        1.0  0.7300569886574522  0.16747734555974603  0.3874129105824977  1.0000
  H   H2        1.0  0.0070063211023807526  0.7419802397489548  0.005210399627685547  1.0000
  H   H3        1.0  0.12103167455643415  0.903842905536294  0.2980389669537544  1.0000
  H   H4        1.0  0.21305266860872507  0.48657772643491626  0.5449335661251098  1.0000
  H   H5        1.0  0.2536276523023844  0.3255232349038124  0.22060022503137589  1.0000
  H   H6        1.0  0.11420497507788241  0.8800803874619305  0.1025240677408874  1.0000
  H   H7        1.0  0.3461012141779065  0.757965337485075  0.03427221346646547  1.0000
  H   H8        1.0  0.8280811011791229  0.8864714670926332  0.6504450105130672  1.0000
  O   O1        1.0  0.346118638291955  0.7465352884319145  0.8586549120955169  1.0000
  O   O2        1.0  0.2708907178021036  0.5139612619532272  0.7120944242196856  1.0000
  O   O3        1.0  0.4382848689201637  0.32234186719870195  0.5222403474108432  1.0000
  O   O4        1.0  0.726760829333216  0.5554665168747306  0.6238316600210965  1.0000
  O   O5        1.0  0.8987285871990025  0.8471228997223079  0.21656591352075338  1.0000
  O   O6        1.0  0.1236377184977755  0.40224118158221245  0.23208130849525332  1.0000
  O   O7        1.0  0.684048261216958  0.502839048858732  0.8488227028865367  1.0000
  O   O8        1.0  0.4615141642279923  0.17878523981198668  0.9278061455115676  1.0000
  O   O9        1.0  0.5830906957853585  0.39116224739700556  0.35003110428806394  1.0000
  O   O10       1.0  0.5664665095391683  0.9957067584618926  0.7518131961114705  1.0000
  F   F1        1.0  0.2811783328652382  0.6485253758728504  0.25212933821603656  1.0000
  F   F2        1.0  0.052054560219403356  0.22108570951968431  0.7283775769174099  1.0000
data_image200
_chemical_formula_structural       Ca2P2H8O10F2
_chemical_formula_sum              "Ca2 P2 H8 O10 F2"
_cell_length_a       8.748547242261026
_cell_length_b       6.5292717768421165
_cell_length_c       5.804229554730758
_cell_angle_alpha    118.85637513684739
_cell_angle_beta     110.64940913561757
_cell_angle_gamma    94.26336680621436

_space_group_name_H-M_alt    "P 1"
_space_group_IT_number       1

loop_
  _space_group_symop_operation_xyz
  'x, y, z'

loop_
  _atom_site_type_symbol
  _atom_site_label
  _atom_site_symmetry_multiplicity
  _atom_site_fract_x
  _atom_site_fract_y
  _atom_site_fract_z
  _atom_site_occupancy
  Ca  Ca1       1.0  0.682612712495029  0.7935778107494116  0.2766542676836252  1.0000
  Ca  Ca2       1.0  0.30408070888370275  0.3123194258660078  0.9471812406554818  1.0000
  P   P1        1.0  0.07336085941642523  0.19674649089574814  0.5391662530601025  1.0000
  P   P2        1.0  0.7460024957545102  0.01759970933198929  0.4511591028422117  1.0000
  H   H1        1.0  0.4808189576724544  0.14499341463670135  0.42611465603113174  1.0000
  H   H2        1.0  0.8759583160281181  0.9664147198200226  0.8823521733283997  1.0000
  H   H3        1.0  0.1851387657225132  0.3107992447912693  0.5980906784534454  1.0000
  H   H4        1.0  0.7183470693416893  0.4342654091306031  0.5268087578006089  1.0000
  H   H5        1.0  0.6763968728482723  0.9261015430092812  0.27796080708503723  1.0000
  H   H6        1.0  0.7819075372535735  0.9459863272495568  0.6023211763240397  1.0000
  H   H7        1.0  0.6405243696644902  0.46338724344968796  0.239634582772851  1.0000
  H   H8        1.0  0.20624884124845266  0.7734592501074076  0.8773185722529888  1.0000
  O   O1        1.0  0.9442849752958864  0.60486374257016  0.5474537345580757  1.0000
  O   O2        1.0  0.2851095596415689  0.5268244417384267  0.7439265454158885  1.0000
  O   O3        1.0  0.02777960769890342  0.026868906570598483  0.19841374152747449  1.0000
  O   O4        1.0  0.6945697980700061  0.11996296001598239  0.1290077161975205  1.0000
  O   O5        1.0  0.33842837205156684  0.3246478158980608  0.8053426421247423  1.0000
  O   O6        1.0  0.8229685891419649  0.24582335748709738  0.0454310888890177  1.0000
  O   O7        1.0  0.7701297984312987  0.7387355433311313  0.7757304038386792  1.0000
  O   O8        1.0  0.6707783378660679  0.2359515419229865  0.17138747358694673  1.0000
  O   O9        1.0  0.26457114273216575  0.9180384420324117  0.29210406134370714  1.0000
  O   O10       1.0  0.03599902459245641  0.3408509446308017  0.31282492354512215  1.0000
  F   F1        1.0  0.2698722518980503  0.6902994122356176  0.8438799660652876  1.0000
  F   F2        1.0  0.14861367008415982  0.4073898568749428  0.44151945412158966  1.0000
