data_image0
_chemical_formula_structural       Re2C10I2O10
_chemical_formula_sum              "Re2 C10 I2 O10"
_cell_length_a       6.7806348447214
_cell_length_b       6.7806348447214
_cell_length_c       10.993743
_cell_angle_alpha    90.0
_cell_angle_beta     90.0
_cell_angle_gamma    110.32517840843863

_space_group_name_H-M_alt    "P 1"
_space_group_IT_number       1

loop_
  _space_group_symop_operation_xyz
  'x, y, z'

loop_
  _atom_site_type_symbol
  _atom_site_label
  _atom_site_symmetry_multiplicity
  _atom_site_fract_x
  _atom_site_fract_y
  _atom_site_fract_z
  _atom_site_occupancy
  Re  Re1       1.0  0.1400660000000001  0.8599340000000002  0.75  1.0000
  Re  Re2       1.0  0.859934  0.14006600000000002  0.25  1.0000
  C   C1        1.0  0.6825229999999999  0.9464850000000001  0.122074  1.0000
  C   C2        1.0  0.317477  0.05351500000000003  0.6220740000000001  1.0000
  C   C3        1.0  0.684036  0.315964  0.25  1.0000
  C   C4        1.0  0.05351500000000002  0.317477  0.37792600000000004  1.0000
  C   C5        1.0  0.946485  0.6825230000000001  0.6220740000000001  1.0000
  C   C6        1.0  0.3159640000000001  0.6840360000000001  0.75  1.0000
  C   C7        1.0  0.946485  0.6825230000000001  0.8779260000000002  1.0000
  C   C8        1.0  0.05351500000000002  0.317477  0.122074  1.0000
  C   C9        1.0  0.317477  0.05351500000000003  0.8779260000000002  1.0000
  C   C10       1.0  0.6825229999999999  0.9464850000000001  0.377926  1.0000
  I   I1        1.0  0.11549600000000003  0.884504  0.25  1.0000
  I   I2        1.0  0.8845039999999997  0.11549600000000002  0.75  1.0000
  O   O1        1.0  0.4188599999999999  0.167083  0.5498800000000001  1.0000
  O   O2        1.0  0.832917  0.5811400000000001  0.95012  1.0000
  O   O3        1.0  0.5811399999999999  0.832917  0.4501200000000001  1.0000
  O   O4        1.0  0.420422  0.579578  0.75  1.0000
  O   O5        1.0  0.5811399999999999  0.832917  0.04988000000000001  1.0000
  O   O6        1.0  0.167083  0.41886  0.04988000000000001  1.0000
  O   O7        1.0  0.579578  0.4204220000000001  0.25  1.0000
  O   O8        1.0  0.832917  0.5811400000000001  0.5498800000000001  1.0000
  O   O9        1.0  0.4188599999999999  0.167083  0.95012  1.0000
  O   O10       1.0  0.167083  0.41886  0.45012000000000013  1.0000
data_image1
_chemical_formula_structural       Re2C10I2O10
_chemical_formula_sum              "Re2 C10 I2 O10"
_cell_length_a       6.7806348447214
_cell_length_b       6.7806348447214
_cell_length_c       10.993743
_cell_angle_alpha    90.0
_cell_angle_beta     90.0
_cell_angle_gamma    110.32517840843863

_space_group_name_H-M_alt    "P 1"
_space_group_IT_number       1

loop_
  _space_group_symop_operation_xyz
  'x, y, z'

loop_
  _atom_site_type_symbol
  _atom_site_label
  _atom_site_symmetry_multiplicity
  _atom_site_fract_x
  _atom_site_fract_y
  _atom_site_fract_z
  _atom_site_occupancy
  Re  Re1       1.0  0.1644218778146721  0.882592380506526  0.7607522980571899  1.0000
  Re  Re2       1.0  0.8744732225261405  0.15415025785846415  0.23538549733281589  1.0000
  C   C1        1.0  0.6257701330455798  0.9089447397367788  0.12436588442665159  1.0000
  C   C2        1.0  0.31273728736062506  0.011968047476300358  0.607212868145754  1.0000
  C   C3        1.0  0.6859597739190141  0.3146436323936169  0.21702419342841459  1.0000
  C   C4        1.0  0.05503834454743011  0.3545806889514166  0.34798463418474057  1.0000
  C   C5        1.0  0.9671320390584853  0.6871449319247364  0.6479528983968479  1.0000
  C   C6        1.0  0.33422772808676915  0.6744009644084804  0.7611634952007749  1.0000
  C   C7        1.0  0.9571243334213937  0.6921017077021772  0.8780917531693595  1.0000
  C   C8        1.0  0.9996628563006404  0.35066767673593957  0.0853776055078695  1.0000
  C   C9        1.0  0.35557558436884545  0.08408789210234392  0.8872335177680322  1.0000
  C   C10       1.0  0.7425572723839868  0.9814631470517552  0.37334767769387783  1.0000
  I   I1        1.0  0.07591217963272125  0.8778220401275494  0.2306304380368997  1.0000
  I   I2        1.0  0.892410137618143  0.06522139168364535  0.7902041246712365  1.0000
  O   O1        1.0  0.3897713402941931  0.06210318825827116  0.516636304021154  1.0000
  O   O2        1.0  0.7974067183941053  0.6024230322801861  0.9360041925979588  1.0000
  O   O3        1.0  0.6479880356273182  0.8820461662184367  0.4538914229330813  1.0000
  O   O4        1.0  0.37242755105925895  0.5375945761672027  0.7264691524716255  1.0000
  O   O5        1.0  0.5470338581333981  0.7768676579900883  0.05670215321226008  1.0000
  O   O6        1.0  0.08358261577691041  0.4815421287180614  0.02391361302321623  1.0000
  O   O7        1.0  0.5556638236273517  0.3922364494657391  0.22731716768920524  1.0000
  O   O8        1.0  0.8424988057457146  0.6115339947500187  0.5795669434423362  1.0000
  O   O9        1.0  0.37853003725754536  0.18114076744257854  0.9769226401897049  1.0000
  O   O10       1.0  0.15213870479791583  0.451298788000609  0.4344075068744271  1.0000
data_image2
_chemical_formula_structural       Re2C10I2O10
_chemical_formula_sum              "Re2 C10 I2 O10"
_cell_length_a       6.7806348447214
_cell_length_b       6.7806348447214
_cell_length_c       10.993743
_cell_angle_alpha    90.0
_cell_angle_beta     90.0
_cell_angle_gamma    110.32517840843863

_space_group_name_H-M_alt    "P 1"
_space_group_IT_number       1

loop_
  _space_group_symop_operation_xyz
  'x, y, z'

loop_
  _atom_site_type_symbol
  _atom_site_label
  _atom_site_symmetry_multiplicity
  _atom_site_fract_x
  _atom_site_fract_y
  _atom_site_fract_z
  _atom_site_occupancy
  Re  Re1       1.0  0.18009446520898767  0.8871343994279615  0.7653019063346184  1.0000
  Re  Re2       1.0  0.8449495077557323  0.13981983036491089  0.21857767760819732  1.0000
  C   C1        1.0  0.6419598846345336  0.9156202937101422  0.10099081809802957  1.0000
  C   C2        1.0  0.3305172170422759  0.10270935404508198  0.6370550286390112  1.0000
  C   C3        1.0  0.6949975306680871  0.33705800208091397  0.25661004873595206  1.0000
  C   C4        1.0  0.12443058726028175  0.2790841325894919  0.2982706917033065  1.0000
  C   C5        1.0  0.03856459315114935  0.6519071284954238  0.6144928326583878  1.0000
  C   C6        1.0  0.34067949937169806  0.7276750714423974  0.7604532078444021  1.0000
  C   C7        1.0  0.9207208670279792  0.7060304039251375  0.8483870419004053  1.0000
  C   C8        1.0  0.0005482336779491  0.3634686389069734  0.1010774858731992  1.0000
  C   C9        1.0  0.3375795515841073  0.03492075290277231  0.8997472040291956  1.0000
  C   C10       1.0  0.7405994373498268  0.9967137385230544  0.3943995998735863  1.0000
  I   I1        1.0  0.013308710477393019  0.797078542783781  0.2196069535994628  1.0000
  I   I2        1.0  0.9209166152847769  0.14538850468893016  0.8168779758144077  1.0000
  O   O1        1.0  0.46961612420267945  0.22447569374962265  0.575223565173904  1.0000
  O   O2        1.0  0.7553972796830213  0.6185545600541846  0.8875475297421941  1.0000
  O   O3        1.0  0.6295508496794336  0.8693061899883981  0.45650966842078317  1.0000
  O   O4        1.0  0.4505182503622043  0.6359827899680921  0.7433116836297619  1.0000
  O   O5        1.0  0.536580830377795  0.7481630337664329  0.07458826936202387  1.0000
  O   O6        1.0  0.11546911622280669  0.4848990978574425  0.03992164864583125  1.0000
  O   O7        1.0  0.5520723572243964  0.3795337392148842  0.2846318831954254  1.0000
  O   O8        1.0  0.9016067268011084  0.5942099108813353  0.5523577260022297  1.0000
  O   O9        1.0  0.4062944644128661  0.15507412799460327  0.9717795429375604  1.0000
  O   O10       1.0  0.26132857060135073  0.3506406716791706  0.3697743627062309  1.0000
data_image3
_chemical_formula_structural       Re2C10I2O10
_chemical_formula_sum              "Re2 C10 I2 O10"
_cell_length_a       6.7806348447214
_cell_length_b       6.7806348447214
_cell_length_c       10.993743
_cell_angle_alpha    90.0
_cell_angle_beta     90.0
_cell_angle_gamma    110.32517840843863

_space_group_name_H-M_alt    "P 1"
_space_group_IT_number       1

loop_
  _space_group_symop_operation_xyz
  'x, y, z'

loop_
  _atom_site_type_symbol
  _atom_site_label
  _atom_site_symmetry_multiplicity
  _atom_site_fract_x
  _atom_site_fract_y
  _atom_site_fract_z
  _atom_site_occupancy
  Re  Re1       1.0  0.09858424237027809  0.8541178984300488  0.7392008562453191  1.0000
  Re  Re2       1.0  0.8418296259979431  0.12763415259137  0.22262898691905433  1.0000
  C   C1        1.0  0.6644571072586561  0.9880454412692882  0.09959782965460855  1.0000
  C   C2        1.0  0.3522975964381678  0.098153343842825  0.6857305278349912  1.0000
  C   C3        1.0  0.730006159954603  0.3442555422714012  0.2837122401405578  1.0000
  C   C4        1.0  0.07302817892437966  0.3313050214163791  0.3611474303620322  1.0000
  C   C5        1.0  0.9718006561140415  0.6569509236407569  0.6121884438962913  1.0000
  C   C6        1.0  0.3115558989716384  0.6991427595311487  0.7465337119041271  1.0000
  C   C7        1.0  0.9115675072673435  0.6912301240682454  0.8685364408183651  1.0000
  C   C8        1.0  0.9992397252518955  0.3913364252494641  0.0964021844783494  1.0000
  C   C9        1.0  0.3765572868700939  0.13443997621734988  0.9466359701846022  1.0000
  C   C10       1.0  0.7535294628584575  0.013521760018569529  0.3915255212131007  1.0000
  I   I1        1.0  0.058739384615743025  0.8028917733161947  0.202958489410508  1.0000
  I   I2        1.0  0.96762954509112  0.162491364215768  0.8015107030443259  1.0000
  O   O1        1.0  0.5353228142405566  0.2212362174907619  0.7114148778584182  1.0000
  O   O2        1.0  0.8021486074372982  0.5661263926540854  0.9318895705412081  1.0000
  O   O3        1.0  0.7232201978562206  0.9283726418211353  0.4879988871887568  1.0000
  O   O4        1.0  0.434370670819292  0.6404335214068563  0.8045447378578099  1.0000
  O   O5        1.0  0.5596902480507295  0.8484918261939286  0.027192223853763443  1.0000
  O   O6        1.0  0.1191767354906988  0.43647737521787655  0.01974282137077393  1.0000
  O   O7        1.0  0.6162705971241155  0.40061970394859436  0.34446807121910306  1.0000
  O   O8        1.0  0.8823965613830453  0.5019238797539228  0.5613765505852412  1.0000
  O   O9        1.0  0.46186395509351014  0.25850031877022644  0.02174937933899912  1.0000
  O   O10       1.0  0.2110743890809326  0.4292728690439248  0.4210286325715674  1.0000
data_image4
_chemical_formula_structural       Re2C10I2O10
_chemical_formula_sum              "Re2 C10 I2 O10"
_cell_length_a       6.7806348447214
_cell_length_b       6.7806348447214
_cell_length_c       10.993743
_cell_angle_alpha    90.0
_cell_angle_beta     90.0
_cell_angle_gamma    110.32517840843863

_space_group_name_H-M_alt    "P 1"
_space_group_IT_number       1

loop_
  _space_group_symop_operation_xyz
  'x, y, z'

loop_
  _atom_site_type_symbol
  _atom_site_label
  _atom_site_symmetry_multiplicity
  _atom_site_fract_x
  _atom_site_fract_y
  _atom_site_fract_z
  _atom_site_occupancy
  Re  Re1       1.0  0.06431164548808946  0.7894763065192101  0.7424474715705329  1.0000
  Re  Re2       1.0  0.8679376793984563  0.18324411732659684  0.24858136191310018  1.0000
  C   C1        1.0  0.7080707026612019  0.06177304657811877  0.1095156855826719  1.0000
  C   C2        1.0  0.3587705274713148  0.9274291510021576  0.6585543301590197  1.0000
  C   C3        1.0  0.672590957286851  0.2983317624158898  0.2821569200912713  1.0000
  C   C4        1.0  0.15944491397604038  0.5291575641361159  0.36826624327323937  1.0000
  C   C5        1.0  0.8720535238447543  0.5631994522566952  0.6359584640456755  1.0000
  C   C6        1.0  0.2407540491289625  0.5991139469548528  0.7750718300452699  1.0000
  C   C7        1.0  0.9085022640343948  0.7886680899194982  0.8935446907698839  1.0000
  C   C8        1.0  0.07439503206903676  0.3970456544158137  0.12466514517161117  1.0000
  C   C9        1.0  0.4501548281540195  0.2554514726316197  0.010187170955201497  1.0000
  C   C10       1.0  0.7292606013319742  0.9464253133207481  0.35829631634510567  1.0000
  I   I1        1.0  0.06343686833238715  0.8269953241688063  0.20466312459672045  1.0000
  I   I2        1.0  0.9769621907368718  0.13950312444443103  0.7728502085185148  1.0000
  O   O1        1.0  0.5355890449565753  0.033583035054703454  0.6187033612498749  1.0000
  O   O2        1.0  0.7738128398312345  0.690927761370756  0.954439831100585  1.0000
  O   O3        1.0  0.65955884330846  0.7909763754522585  0.41460722724594723  1.0000
  O   O4        1.0  0.38962596239542296  0.5446705276675187  0.7795378173165881  1.0000
  O   O5        1.0  0.643162663357209  0.04173143587278583  0.0015914410338956583  1.0000
  O   O6        1.0  0.09886268291666452  0.47182945252386227  0.024874825236391864  1.0000
  O   O7        1.0  0.5370019032005421  0.3426440774045135  0.3254604787895641  1.0000
  O   O8        1.0  0.7925201142583272  0.4160158533682726  0.5748609408342413  1.0000
  O   O9        1.0  0.5654162612537541  0.3746770497800179  0.08246459697176567  1.0000
  O   O10       1.0  0.3191547951461756  0.6216714302290416  0.34172060658733233  1.0000
data_image5
_chemical_formula_structural       Re2C10I2O10
_chemical_formula_sum              "Re2 C10 I2 O10"
_cell_length_a       6.7806348447214
_cell_length_b       6.7806348447214
_cell_length_c       10.993743
_cell_angle_alpha    90.0
_cell_angle_beta     90.0
_cell_angle_gamma    110.32517840843863

_space_group_name_H-M_alt    "P 1"
_space_group_IT_number       1

loop_
  _space_group_symop_operation_xyz
  'x, y, z'

loop_
  _atom_site_type_symbol
  _atom_site_label
  _atom_site_symmetry_multiplicity
  _atom_site_fract_x
  _atom_site_fract_y
  _atom_site_fract_z
  _atom_site_occupancy
  Re  Re1       1.0  0.10178432896085539  0.7948205443970079  0.7195330010880191  1.0000
  Re  Re2       1.0  0.868257180337968  0.19234235121103335  0.27960776783913266  1.0000
  C   C1        1.0  0.643360952205507  0.961252828274646  0.1591725673364812  1.0000
  C   C2        1.0  0.3384491354095105  0.9194640073479475  0.6304581047952116  1.0000
  C   C3        1.0  0.5946804867418803  0.23412807522185097  0.34001150963679133  1.0000
  C   C4        1.0  0.13631426035275643  0.408439534360484  0.3117541482665374  1.0000
  C   C5        1.0  0.8500734463722419  0.5532239854931689  0.6653181060616261  1.0000
  C   C6        1.0  0.26561920395297756  0.6056487729757112  0.7465118596113208  1.0000
  C   C7        1.0  0.8295162399680817  0.7143783073314971  0.8400300776346811  1.0000
  C   C8        1.0  0.0507402520373636  0.2860706662936493  0.12951486731046488  1.0000
  C   C9        1.0  0.4933645620756038  0.35565346195657627  0.9721735157156386  1.0000
  C   C10       1.0  0.8008426224829291  0.9781960524684141  0.4231287887502485  1.0000
  I   I1        1.0  0.059709995080266365  0.9221273753566707  0.23323968164768524  1.0000
  I   I2        1.0  0.9907988147043689  0.10244146026950379  0.7243614224848847  1.0000
  O   O1        1.0  0.4707887643465365  0.9923844478065565  0.5614745215432314  1.0000
  O   O2        1.0  0.6852042789678602  0.7094939463141537  0.8862933410244834  1.0000
  O   O3        1.0  0.7481338574834798  0.7964437382907675  0.4284223080566949  1.0000
  O   O4        1.0  0.3859996590227419  0.5299918486586073  0.7594707674566734  1.0000
  O   O5        1.0  0.5231896573216377  0.8937371713757821  0.0799592768011341  1.0000
  O   O6        1.0  0.15155503909504187  0.42765529166475647  0.07766735511785326  1.0000
  O   O7        1.0  0.4096194343070065  0.1985540604255395  0.35792085148323016  1.0000
  O   O8        1.0  0.722701850700132  0.4417628588369137  0.6085589302587248  1.0000
  O   O9        1.0  0.6027005992691435  0.44569427750643414  0.05139662187915284  1.0000
  O   O10       1.0  0.2373411165665139  0.5412474173712812  0.36821323855548604  1.0000
data_image6
_chemical_formula_structural       Re2C10I2O10
_chemical_formula_sum              "Re2 C10 I2 O10"
_cell_length_a       6.7806348447214
_cell_length_b       6.7806348447214
_cell_length_c       10.993743
_cell_angle_alpha    90.0
_cell_angle_beta     90.0
_cell_angle_gamma    110.32517840843863

_space_group_name_H-M_alt    "P 1"
_space_group_IT_number       1

loop_
  _space_group_symop_operation_xyz
  'x, y, z'

loop_
  _atom_site_type_symbol
  _atom_site_label
  _atom_site_symmetry_multiplicity
  _atom_site_fract_x
  _atom_site_fract_y
  _atom_site_fract_z
  _atom_site_occupancy
  Re  Re1       1.0  0.15552509079464452  0.8110571109040895  0.7248981418381675  1.0000
  Re  Re2       1.0  0.8575051589326201  0.143552616619298  0.2846029494727294  1.0000
  C   C1        1.0  0.6145198907904524  0.916692016950613  0.22172414384653685  1.0000
  C   C2        1.0  0.31463130512710186  0.10492571330021572  0.6521307192055998  1.0000
  C   C3        1.0  0.6578374977875235  0.3174213854945576  0.3199470698032597  1.0000
  C   C4        1.0  0.0419018259261595  0.3695180079525327  0.3848164371344998  1.0000
  C   C5        1.0  0.9530271876111084  0.591074864189344  0.6469605639526037  1.0000
  C   C6        1.0  0.3078147598547232  0.6161416475263758  0.7530358642312865  1.0000
  C   C7        1.0  0.9211317201717434  0.8526801761375311  0.8351581171962382  1.0000
  C   C8        1.0  0.9299046245107574  0.22563861546387948  0.09914951917600025  1.0000
  C   C9        1.0  0.3603482035824955  0.19030418252698125  0.02388521004501931  1.0000
  C   C10       1.0  0.7397921713931538  0.9284967138774397  0.42450049242911975  1.0000
  I   I1        1.0  0.09223587130350706  0.9132761140603202  0.24441267787684623  1.0000
  I   I2        1.0  0.9456426279462972  0.1284571639051184  0.6625893915122784  1.0000
  O   O1        1.0  0.4321991896049844  0.2338007273879184  0.5888472699686257  1.0000
  O   O2        1.0  0.7622437846973129  0.8398820721633691  0.8732696948768327  1.0000
  O   O3        1.0  0.7303857173080649  0.7813435892333549  0.46927752805669415  1.0000
  O   O4        1.0  0.36080276947804757  0.47004994867223726  0.7556107582961032  1.0000
  O   O5        1.0  0.4737472341657117  0.7546435890898197  0.19555178036178825  1.0000
  O   O6        1.0  0.9573478988338489  0.39207892888537  0.040990822017791854  1.0000
  O   O7        1.0  0.4960891507374621  0.3597352513979789  0.3457992788779793  1.0000
  O   O8        1.0  0.8470927315558328  0.47148641255266033  0.579573800633973  1.0000
  O   O9        1.0  0.47289420840114355  0.35184473207457545  0.03150672097187024  1.0000
  O   O10       1.0  0.12897691140480208  0.4892129497528954  0.4724041005165336  1.0000
data_image7
_chemical_formula_structural       Re2C10I2O10
_chemical_formula_sum              "Re2 C10 I2 O10"
_cell_length_a       6.7806348447214
_cell_length_b       6.7806348447214
_cell_length_c       10.993743
_cell_angle_alpha    90.0
_cell_angle_beta     90.0
_cell_angle_gamma    110.32517840843863

_space_group_name_H-M_alt    "P 1"
_space_group_IT_number       1

loop_
  _space_group_symop_operation_xyz
  'x, y, z'

loop_
  _atom_site_type_symbol
  _atom_site_label
  _atom_site_symmetry_multiplicity
  _atom_site_fract_x
  _atom_site_fract_y
  _atom_site_fract_z
  _atom_site_occupancy
  Re  Re1       1.0  0.22236481408968836  0.8666871677278899  0.7120124359077278  1.0000
  Re  Re2       1.0  0.8062076296144257  0.12051092043963886  0.2721585797793096  1.0000
  C   C1        1.0  0.6140286980784114  0.8085136073971866  0.2043321384483451  1.0000
  C   C2        1.0  0.35918733820048404  0.14988760602625267  0.6574391431022538  1.0000
  C   C3        1.0  0.6080270903859959  0.24506967400177804  0.2796501010818573  1.0000
  C   C4        1.0  0.9437629191420087  0.36959014564356996  0.38572030073002683  1.0000
  C   C5        1.0  0.92748416649809  0.6900238344645293  0.7038387113737632  1.0000
  C   C6        1.0  0.3359920409280359  0.695042467847811  0.8207805241273326  1.0000
  C   C7        1.0  0.15971087205446977  0.8643148004957427  0.8759080180190045  1.0000
  C   C8        1.0  0.8793996044663498  0.16859879296458638  0.08171416283839288  1.0000
  C   C9        1.0  0.37566110029556826  0.19523470007153887  0.002163189734076587  1.0000
  C   C10       1.0  0.6681773028258268  0.9652508785143606  0.4345724760825852  1.0000
  I   I1        1.0  0.0856485116351751  0.8683941484613988  0.23195007744539747  1.0000
  I   I2        1.0  0.938650439112946  0.1261089114249194  0.6524512436815004  1.0000
  O   O1        1.0  0.42776175415678896  0.31260569505290925  0.6161488210832556  1.0000
  O   O2        1.0  0.08878994098953741  0.8077422646526038  0.9696799815350354  1.0000
  O   O3        1.0  0.5981496450834216  0.8287762327627322  0.5037839602730196  1.0000
  O   O4        1.0  0.3584507742659549  0.5753464341144563  0.8769504867962019  1.0000
  O   O5        1.0  0.49433013497589695  0.6549494191176017  0.18622224357419195  1.0000
  O   O6        1.0  0.880989923901439  0.3151952707618149  0.02287689416240402  1.0000
  O   O7        1.0  0.500255823981397  0.3360004058072397  0.3052089881150156  1.0000
  O   O8        1.0  0.7731660537654733  0.6313148346161751  0.7538776198474122  1.0000
  O   O9        1.0  0.4966064650078528  0.16821459922812393  0.06506232423114189  1.0000
  O   O10       1.0  0.9417367236451549  0.4905883628865633  0.4625828700797597  1.0000
data_image8
_chemical_formula_structural       Re2C10I2O10
_chemical_formula_sum              "Re2 C10 I2 O10"
_cell_length_a       6.7806348447214
_cell_length_b       6.7806348447214
_cell_length_c       10.993743
_cell_angle_alpha    90.0
_cell_angle_beta     90.0
_cell_angle_gamma    110.32517840843863

_space_group_name_H-M_alt    "P 1"
_space_group_IT_number       1

loop_
  _space_group_symop_operation_xyz
  'x, y, z'

loop_
  _atom_site_type_symbol
  _atom_site_label
  _atom_site_symmetry_multiplicity
  _atom_site_fract_x
  _atom_site_fract_y
  _atom_site_fract_z
  _atom_site_occupancy
  Re  Re1       1.0  0.23077792285710858  0.9006448438598749  0.709553401785808  1.0000
  Re  Re2       1.0  0.7782108367792295  0.1180615570824988  0.2674566419884084  1.0000
  C   C1        1.0  0.5541644357578511  0.8634481218475059  0.1829373558259468  1.0000
  C   C2        1.0  0.48807794521985787  0.19068980225366797  0.6484224472766059  1.0000
  C   C3        1.0  0.5996476060606284  0.28932963202401263  0.26692790353293155  1.0000
  C   C4        1.0  0.015433670101916454  0.34166746244870294  0.373686896033367  1.0000
  C   C5        1.0  0.9538630624587757  0.6880799749298302  0.7018195909614107  1.0000
  C   C6        1.0  0.3876667382322439  0.7016928216311842  0.7525749152495147  1.0000
  C   C7        1.0  0.17095918769594842  0.8765088749678669  0.8846265026621453  1.0000
  C   C8        1.0  0.9519837788951231  0.17400549598066925  0.11460430001157995  1.0000
  C   C9        1.0  0.5544697231076956  0.3971707194558496  0.043262216968756206  1.0000
  C   C10       1.0  0.5886566982540005  0.9440706379653471  0.38677687430772556  1.0000
  I   I1        1.0  0.006815339221987458  0.8422258869917157  0.25371660519542105  1.0000
  I   I2        1.0  0.9502696775466547  0.06550573971343158  0.6836173181384232  1.0000
  O   O1        1.0  0.5597403433504272  0.33510312140846177  0.5847659077171388  1.0000
  O   O2        1.0  0.14930254991883296  0.8282071792210836  0.9801654578793385  1.0000
  O   O3        1.0  0.5181708070796829  0.8260455431449837  0.46548447828713474  1.0000
  O   O4        1.0  0.45594042875761004  0.5756564973631332  0.7769326587330689  1.0000
  O   O5        1.0  0.40888379965803406  0.7316154923933601  0.17027799287309128  1.0000
  O   O6        1.0  0.01693517566519178  0.24324724632355635  0.02797466961408762  1.0000
  O   O7        1.0  0.5142037889831922  0.40278547974765877  0.2893358483231408  1.0000
  O   O8        1.0  0.8295743863092325  0.5579663364124481  0.7686688962216746  1.0000
  O   O9        1.0  0.4994772130685785  0.24052117111212323  0.9881286155248394  1.0000
  O   O10       1.0  0.0729335872667897  0.4729091215602008  0.4427813034764592  1.0000
data_image9
_chemical_formula_structural       Re2C10I2O10
_chemical_formula_sum              "Re2 C10 I2 O10"
_cell_length_a       6.7806348447214
_cell_length_b       6.7806348447214
_cell_length_c       10.993743
_cell_angle_alpha    90.0
_cell_angle_beta     90.0
_cell_angle_gamma    110.32517840843863

_space_group_name_H-M_alt    "P 1"
_space_group_IT_number       1

loop_
  _space_group_symop_operation_xyz
  'x, y, z'

loop_
  _atom_site_type_symbol
  _atom_site_label
  _atom_site_symmetry_multiplicity
  _atom_site_fract_x
  _atom_site_fract_y
  _atom_site_fract_z
  _atom_site_occupancy
  Re  Re1       1.0  0.2535232284201142  0.9108124626315613  0.7075201284125499  1.0000
  Re  Re2       1.0  0.7675960380292216  0.08160469145559027  0.25680547005403265  1.0000
  C   C1        1.0  0.4949276382035369  0.8324905343289946  0.1049957527734552  1.0000
  C   C2        1.0  0.515644826437051  0.1382539095651162  0.6422688121809924  1.0000
  C   C3        1.0  0.6167532632414732  0.31552959992510776  0.2674768987696135  1.0000
  C   C4        1.0  0.018796889020717484  0.18584862602857785  0.3718040237591042  1.0000
  C   C5        1.0  0.04546399546746738  0.6368666452395383  0.7284629597445671  1.0000
  C   C6        1.0  0.4068989045056086  0.722141842591402  0.7010440348249491  1.0000
  C   C7        1.0  0.20666919432610498  0.004643494450982111  0.8661171034539867  1.0000
  C   C8        1.0  0.9990393970390021  0.29598353907345515  0.1409236792568813  1.0000
  C   C9        1.0  0.6375225004070553  0.6345660261077894  0.010879948496594682  1.0000
  C   C10       1.0  0.5483223924381235  0.9362724076427309  0.38098902659060446  1.0000
  I   I1        1.0  0.9490047464194616  0.825310841718205  0.27976580660706535  1.0000
  I   I2        1.0  0.9314876300053556  0.02043524022911546  0.7026189263462275  1.0000
  O   O1        1.0  0.6421126913494275  0.2959949348027532  0.6065855989127389  1.0000
  O   O2        1.0  0.1718672155940184  0.04540477145008959  0.956525926159218  1.0000
  O   O3        1.0  0.3970943668750291  0.875320334934424  0.4378286708691364  1.0000
  O   O4        1.0  0.512353914952393  0.6801696123840052  0.6347229179165909  1.0000
  O   O5        1.0  0.3255942847297696  0.7947381599379808  0.1161067024477844  1.0000
  O   O6        1.0  0.15259852335291385  0.4333770184533897  0.11980216101393634  1.0000
  O   O7        1.0  0.5151646310444091  0.4154749943583076  0.29677299704802806  1.0000
  O   O8        1.0  0.9247037449818435  0.5217882358617506  0.8023026974752148  1.0000
  O   O9        1.0  0.5164603815563048  0.4725280308944721  3.619795675646742e-05  1.0000
  O   O10       1.0  0.17903788350906183  0.304364585500197  0.4186653557131719  1.0000
data_image10
_chemical_formula_structural       Re2C10I2O10
_chemical_formula_sum              "Re2 C10 I2 O10"
_cell_length_a       6.7806348447214
_cell_length_b       6.7806348447214
_cell_length_c       10.993743
_cell_angle_alpha    90.0
_cell_angle_beta     90.0
_cell_angle_gamma    110.32517840843863

_space_group_name_H-M_alt    "P 1"
_space_group_IT_number       1

loop_
  _space_group_symop_operation_xyz
  'x, y, z'

loop_
  _atom_site_type_symbol
  _atom_site_label
  _atom_site_symmetry_multiplicity
  _atom_site_fract_x
  _atom_site_fract_y
  _atom_site_fract_z
  _atom_site_occupancy
  Re  Re1       1.0  0.28576745822044475  0.9161371869553907  0.7032753642996793  1.0000
  Re  Re2       1.0  0.7442990151679143  0.11154607237199231  0.2663107738733967  1.0000
  C   C1        1.0  0.5688698503742744  0.9334164693908263  0.14529130002340943  1.0000
  C   C2        1.0  0.5458472604893893  0.16104025406008415  0.7253902628487047  1.0000
  C   C3        1.0  0.6367092101863409  0.3023348217258932  0.18473385174467227  1.0000
  C   C4        1.0  0.04743329243589229  0.1823779289599491  0.3773877035391184  1.0000
  C   C5        1.0  0.10939582040930951  0.622672046431208  0.7688175987984036  1.0000
  C   C6        1.0  0.39887440227577586  0.7498253360480835  0.6067106475826659  1.0000
  C   C7        1.0  0.2686664470551765  0.08134841861627784  0.8814348078770003  1.0000
  C   C8        1.0  0.0011883065773791025  0.2939766156234888  0.20650451475764503  1.0000
  C   C9        1.0  0.8565177247045414  0.7804688255019075  0.9333458537450415  1.0000
  C   C10       1.0  0.45403973972504  0.948391266321801  0.3330091871531214  1.0000
  I   I1        1.0  0.8812998494489499  0.7353929034118862  0.31545644095077485  1.0000
  I   I2        1.0  0.9115606470085191  0.9540662180057414  0.6918543651173155  1.0000
  O   O1        1.0  0.6371978134137053  0.3511228249425813  0.7335169805978791  1.0000
  O   O2        1.0  0.2932010770505009  0.24642958785055868  0.9176980287067715  1.0000
  O   O3        1.0  0.29323814457039216  0.9221886909085633  0.379453336112212  1.0000
  O   O4        1.0  0.47159518497745273  0.6949978865628053  0.5296985694961805  1.0000
  O   O5        1.0  0.4341649853155656  0.8835408581262316  0.0702521070849506  1.0000
  O   O6        1.0  0.17208750988127983  0.42390884069366225  0.19403383620141892  1.0000
  O   O7        1.0  0.5290416480310615  0.36121570881744247  0.11127636526434151  1.0000
  O   O8        1.0  0.9819485676618979  0.4999784389010472  0.8328047472031692  1.0000
  O   O9        1.0  0.6781375514439051  0.7115443289123019  0.9627222917698673  1.0000
  O   O10       1.0  0.126413470415935  0.32183439316411294  0.4430368701932539  1.0000
data_image11
_chemical_formula_structural       Re2C10I2O10
_chemical_formula_sum              "Re2 C10 I2 O10"
_cell_length_a       6.7806348447214
_cell_length_b       6.7806348447214
_cell_length_c       10.993743
_cell_angle_alpha    90.0
_cell_angle_beta     90.0
_cell_angle_gamma    110.32517840843863

_space_group_name_H-M_alt    "P 1"
_space_group_IT_number       1

loop_
  _space_group_symop_operation_xyz
  'x, y, z'

loop_
  _atom_site_type_symbol
  _atom_site_label
  _atom_site_symmetry_multiplicity
  _atom_site_fract_x
  _atom_site_fract_y
  _atom_site_fract_z
  _atom_site_occupancy
  Re  Re1       1.0  0.2762387637204908  0.9040580382562656  0.6976516759194883  1.0000
  Re  Re2       1.0  0.7680173386311716  0.16653824033635095  0.2742034007469471  1.0000
  C   C1        1.0  0.5634151481340122  0.9247014694607308  0.17901486433542485  1.0000
  C   C2        1.0  0.5270716139643818  0.1427182504833141  0.697890163365604  1.0000
  C   C3        1.0  0.6729547853548786  0.35716264837856915  0.1514801962891037  1.0000
  C   C4        1.0  0.986565994843241  0.18456914174305172  0.39228860636918633  1.0000
  C   C5        1.0  0.2552543118009247  0.6797497261315056  0.7875544663754936  1.0000
  C   C6        1.0  0.4057474515587305  0.7699484827267374  0.5776482165274354  1.0000
  C   C7        1.0  0.20609856909689683  0.005359430383994113  0.903517371875885  1.0000
  C   C8        1.0  0.011869414325338182  0.33503306520466614  0.19630818902651953  1.0000
  C   C9        1.0  0.8007962954094167  0.6910389119788346  0.9290899937699985  1.0000
  C   C10       1.0  0.5295674533122813  0.10786653709126415  0.37992923607385665  1.0000
  I   I1        1.0  0.8374995939908095  0.7200241716075974  0.31113140279484736  1.0000
  I   I2        1.0  0.8934634277078911  0.9027655448102756  0.677667506418559  1.0000
  O   O1        1.0  0.6538152426797792  0.282254074945018  0.6443864391100858  1.0000
  O   O2        1.0  0.19275879746451907  0.002519308023283262  0.004017650689126073  1.0000
  O   O3        1.0  0.37322468626939026  0.0831075217529964  0.45567714012283544  1.0000
  O   O4        1.0  0.4661987320211659  0.6419826553952012  0.5342441029714456  1.0000
  O   O5        1.0  0.4585505837939745  0.8166475208883732  0.10315462190440707  1.0000
  O   O6        1.0  0.1755240569892038  0.46616999171608015  0.1725925112951989  1.0000
  O   O7        1.0  0.5944638584623977  0.4636175449470252  0.11969714049637176  1.0000
  O   O8        1.0  0.2012150050090762  0.5090411360439563  0.8218264240730891  1.0000
  O   O9        1.0  0.7162887087419059  0.8121417321647273  0.939897805048751  1.0000
  O   O10       1.0  0.06223134509165096  0.2448130897878889  0.484938887564408  1.0000
data_image12
_chemical_formula_structural       Re2C10I2O10
_chemical_formula_sum              "Re2 C10 I2 O10"
_cell_length_a       6.7806348447214
_cell_length_b       6.7806348447214
_cell_length_c       10.993743
_cell_angle_alpha    90.0
_cell_angle_beta     90.0
_cell_angle_gamma    110.32517840843863

_space_group_name_H-M_alt    "P 1"
_space_group_IT_number       1

loop_
  _space_group_symop_operation_xyz
  'x, y, z'

loop_
  _atom_site_type_symbol
  _atom_site_label
  _atom_site_symmetry_multiplicity
  _atom_site_fract_x
  _atom_site_fract_y
  _atom_site_fract_z
  _atom_site_occupancy
  Re  Re1       1.0  0.2478915595670606  0.8751640184920422  0.6997637199218152  1.0000
  Re  Re2       1.0  0.7689543265518802  0.13385396502608657  0.26863997355156477  1.0000
  C   C1        1.0  0.5537527543531603  0.9250299512354625  0.14630542147345127  1.0000
  C   C2        1.0  0.5405436886894426  0.0955635231740035  0.664882311773191  1.0000
  C   C3        1.0  0.6896010137563406  0.33126599063249024  0.17714872531786377  1.0000
  C   C4        1.0  0.9404431605820867  0.24586754299304722  0.42007581717061704  1.0000
  C   C5        1.0  0.29146413360655665  0.5953316512534735  0.786214547251663  1.0000
  C   C6        1.0  0.3201141739718988  0.7126588080306772  0.5747454155688766  1.0000
  C   C7        1.0  0.23455616317784855  0.049652868701910435  0.874328760057863  1.0000
  C   C8        1.0  0.021822955164236425  0.18527506563472806  0.17197856453943286  1.0000
  C   C9        1.0  0.7288757280872327  0.691488151565579  0.9466185293305375  1.0000
  C   C10       1.0  0.572786338158592  0.18619286169394367  0.37731094955075783  1.0000
  I   I1        1.0  0.877452315096721  0.8086751716953724  0.3145722083511037  1.0000
  I   I2        1.0  0.9034513737830461  0.9144515791820715  0.6887686878293503  1.0000
  O   O1        1.0  0.6838742159375166  0.2532836301335966  0.658808776586345  1.0000
  O   O2        1.0  0.28293721328693877  0.14917180953892895  0.9582082888373091  1.0000
  O   O3        1.0  0.40975707325831995  0.2052485736919165  0.4085104402199225  1.0000
  O   O4        1.0  0.33440185147574325  0.5883170758673457  0.5123638796151135  1.0000
  O   O5        1.0  0.38523441866774166  0.8681338174174281  0.1039898029209159  1.0000
  O   O6        1.0  0.1770762441226543  0.30861475984828723  0.15010637854963654  1.0000
  O   O7        1.0  0.6010537428544108  0.4385308398474217  0.14569939096408985  1.0000
  O   O8        1.0  0.3015611016312225  0.4379758537680479  0.8109264801218043  1.0000
  O   O9        1.0  0.6735068755954079  0.8319459038938047  0.9816875827952696  1.0000
  O   O10       1.0  0.033064947580776285  0.2967272589354113  0.5117876824569852  1.0000
data_image13
_chemical_formula_structural       Re2C10I2O10
_chemical_formula_sum              "Re2 C10 I2 O10"
_cell_length_a       6.7806348447214
_cell_length_b       6.7806348447214
_cell_length_c       10.993743
_cell_angle_alpha    90.0
_cell_angle_beta     90.0
_cell_angle_gamma    110.32517840843863

_space_group_name_H-M_alt    "P 1"
_space_group_IT_number       1

loop_
  _space_group_symop_operation_xyz
  'x, y, z'

loop_
  _atom_site_type_symbol
  _atom_site_label
  _atom_site_symmetry_multiplicity
  _atom_site_fract_x
  _atom_site_fract_y
  _atom_site_fract_z
  _atom_site_occupancy
  Re  Re1       1.0  0.2618647350268986  0.8707478027262909  0.6890261778986185  1.0000
  Re  Re2       1.0  0.7229005412588162  0.14478986753117412  0.27256910402241386  1.0000
  C   C1        1.0  0.4457190320085935  0.9475050035008334  0.21831515145843725  1.0000
  C   C2        1.0  0.5258602041295563  0.0714121527230114  0.727417159455146  1.0000
  C   C3        1.0  0.7001812143352273  0.33526368145280266  0.133891627252966  1.0000
  C   C4        1.0  0.8830457867784154  0.2845098686691061  0.41526900402410144  1.0000
  C   C5        1.0  0.3365746569324779  0.6765305195971038  0.7624395729055771  1.0000
  C   C6        1.0  0.42615433380892875  0.8259896782482989  0.5414347209583229  1.0000
  C   C7        1.0  0.27740836104798383  0.02261454391304274  0.8535034753529721  1.0000
  C   C8        1.0  0.016775185981013643  0.2265729506410925  0.20440289359183952  1.0000
  C   C9        1.0  0.7647690092679347  0.8456057133259508  0.07674949976692669  1.0000
  C   C10       1.0  0.49087913809126676  0.1999509676749709  0.38157907557834886  1.0000
  I   I1        1.0  0.9038012782077213  0.8240654192682407  0.31399924423302905  1.0000
  I   I2        1.0  0.8701353174590813  0.8047697195728721  0.6706686665921644  1.0000
  O   O1        1.0  0.6737271397468996  0.1860217289565098  0.7775475282969383  1.0000
  O   O2        1.0  0.35198791211508484  0.12500909548829653  0.939607347956411  1.0000
  O   O3        1.0  0.39993509574214625  0.1790610156883674  0.46499054816234736  1.0000
  O   O4        1.0  0.5368930160920089  0.8046190205608248  0.464588575949267  1.0000
  O   O5        1.0  0.27264817157778065  0.839102814782606  0.19427226567252917  1.0000
  O   O6        1.0  0.16257589746301904  0.3257420838809834  0.14862218549040154  1.0000
  O   O7        1.0  0.6882214464079492  0.4426637933599647  0.04768490839132817  1.0000
  O   O8        1.0  0.4047005073165819  0.5751762375145416  0.8230068184774836  1.0000
  O   O9        1.0  0.8465481613835562  0.8285606400717417  0.9938236256472158  1.0000
  O   O10       1.0  0.9951908723576142  0.41563326043447346  0.4747332550686655  1.0000
data_image14
_chemical_formula_structural       Re2C10I2O10
_chemical_formula_sum              "Re2 C10 I2 O10"
_cell_length_a       6.7806348447214
_cell_length_b       6.7806348447214
_cell_length_c       10.993743
_cell_angle_alpha    90.0
_cell_angle_beta     90.0
_cell_angle_gamma    110.32517840843863

_space_group_name_H-M_alt    "P 1"
_space_group_IT_number       1

loop_
  _space_group_symop_operation_xyz
  'x, y, z'

loop_
  _atom_site_type_symbol
  _atom_site_label
  _atom_site_symmetry_multiplicity
  _atom_site_fract_x
  _atom_site_fract_y
  _atom_site_fract_z
  _atom_site_occupancy
  Re  Re1       1.0  0.31170728084550897  0.9175503546840252  0.6993805662133451  1.0000
  Re  Re2       1.0  0.7072612957546347  0.14001552146964147  0.2771572019876851  1.0000
  C   C1        1.0  0.4990044904262248  0.8714250172910405  0.21635051583622814  1.0000
  C   C2        1.0  0.5621884540578781  0.162780735183735  0.7633543085958067  1.0000
  C   C3        1.0  0.6154838698571984  0.24036161695087113  0.12386066039580998  1.0000
  C   C4        1.0  0.9384716652326025  0.3288733744512002  0.4364489555224722  1.0000
  C   C5        1.0  0.3249617250927901  0.6583481597561999  0.7865765792777911  1.0000
  C   C6        1.0  0.4534314110378374  0.9068345900975354  0.5565424419498477  1.0000
  C   C7        1.0  0.2531861586828368  0.9950400233454777  0.8825912405222063  1.0000
  C   C8        1.0  0.9619534373523597  0.2337824705597605  0.16272335499311857  1.0000
  C   C9        1.0  0.814059736880926  0.8630993975801828  0.9219169052376235  1.0000
  C   C10       1.0  0.5970964188785819  0.3296783197920956  0.3770259474016756  1.0000
  I   I1        1.0  0.8564909191981104  0.7976251959441583  0.3035195194717333  1.0000
  I   I2        1.0  0.845857742920908  0.7429046279353635  0.6661036598090112  1.0000
  O   O1        1.0  0.7329559908379502  0.16533479702032303  0.756545144759749  1.0000
  O   O2        1.0  0.22631110382418207  0.015931811496038506  0.9875052373029113  1.0000
  O   O3        1.0  0.5115439564880001  0.40533172697578723  0.446181274305771  1.0000
  O   O4        1.0  0.549663153156118  0.8761229867755265  0.47100795698624287  1.0000
  O   O5        1.0  0.4097595541417979  0.7230644430661517  0.16458327660226332  1.0000
  O   O6        1.0  0.09861381849161989  0.3297307289921649  0.09734496144397055  1.0000
  O   O7        1.0  0.6014196430426394  0.3636568738054278  0.04432097196688541  1.0000
  O   O8        1.0  0.39181910445334367  0.5520148630556957  0.8436372524898323  1.0000
  O   O9        1.0  0.8111085547475826  0.9173182163344802  0.02074243698142708  1.0000
  O   O10       1.0  0.03974270088438005  0.4510694727670329  0.4998465248945655  1.0000
data_image15
_chemical_formula_structural       Re2C10I2O10
_chemical_formula_sum              "Re2 C10 I2 O10"
_cell_length_a       6.7806348447214
_cell_length_b       6.7806348447214
_cell_length_c       10.993743
_cell_angle_alpha    90.0
_cell_angle_beta     90.0
_cell_angle_gamma    110.32517840843863

_space_group_name_H-M_alt    "P 1"
_space_group_IT_number       1

loop_
  _space_group_symop_operation_xyz
  'x, y, z'

loop_
  _atom_site_type_symbol
  _atom_site_label
  _atom_site_symmetry_multiplicity
  _atom_site_fract_x
  _atom_site_fract_y
  _atom_site_fract_z
  _atom_site_occupancy
  Re  Re1       1.0  0.2898478903515922  0.9384203396292331  0.7239239114618871  1.0000
  Re  Re2       1.0  0.6881667514364231  0.13212651251483767  0.2810342239752007  1.0000
  C   C1        1.0  0.43659996127619854  0.839326819507122  0.28722838479883583  1.0000
  C   C2        1.0  0.5991999714780334  0.1474673704855252  0.6886956965450765  1.0000
  C   C3        1.0  0.5924903501644749  0.3038617591243108  0.18905040743459336  1.0000
  C   C4        1.0  0.9869269774384745  0.2826571883085784  0.3333256918019303  1.0000
  C   C5        1.0  0.26979651545501837  0.6500298973814111  0.739289166863223  1.0000
  C   C6        1.0  0.3381922973321405  0.8752896137746909  0.5418211632962475  1.0000
  C   C7        1.0  0.2922665162495768  0.9611085940396896  0.9146076739635184  1.0000
  C   C8        1.0  0.8182430643693406  0.194440583901577  0.10163118879308693  1.0000
  C   C9        1.0  0.8160103714590936  0.7951912815294908  0.939685867415225  1.0000
  C   C10       1.0  0.5704277676975974  0.32789635634848313  0.4138003059728683  1.0000
  I   I1        1.0  0.9454003462987968  0.858934502273559  0.30328173742172776  1.0000
  I   I2        1.0  0.9499763510927156  0.7393407716354619  0.6668666559081269  1.0000
  O   O1        1.0  0.7638834435278413  0.24933782230406032  0.6444461350217102  1.0000
  O   O2        1.0  0.25036257421951036  0.013944788884233672  0.007130387692396489  1.0000
  O   O3        1.0  0.461003837004806  0.4008352624950695  0.4735648214086343  1.0000
  O   O4        1.0  0.34119126614218936  0.7628458150990133  0.46727852793875957  1.0000
  O   O5        1.0  0.30210173368824994  0.7038337872178649  0.24706470772203298  1.0000
  O   O6        1.0  0.8905755017667564  0.24948793738357253  0.006382192583036398  1.0000
  O   O7        1.0  0.5080959845948032  0.3870946383186035  0.11912818815738602  1.0000
  O   O8        1.0  0.2265460947017579  0.4624088656877091  0.7578551044528998  1.0000
  O   O9        1.0  0.6707420659315593  0.8329705010956374  0.9675070018735444  1.0000
  O   O10       1.0  0.13597900545879504  0.27613238797961315  0.3734503676166412  1.0000
data_image16
_chemical_formula_structural       Re2C10I2O10
_chemical_formula_sum              "Re2 C10 I2 O10"
_cell_length_a       6.7806348447214
_cell_length_b       6.7806348447214
_cell_length_c       10.993743
_cell_angle_alpha    90.0
_cell_angle_beta     90.0
_cell_angle_gamma    110.32517840843863

_space_group_name_H-M_alt    "P 1"
_space_group_IT_number       1

loop_
  _space_group_symop_operation_xyz
  'x, y, z'

loop_
  _atom_site_type_symbol
  _atom_site_label
  _atom_site_symmetry_multiplicity
  _atom_site_fract_x
  _atom_site_fract_y
  _atom_site_fract_z
  _atom_site_occupancy
  Re  Re1       1.0  0.3419271327091811  0.004344271436765412  0.725488720638578  1.0000
  Re  Re2       1.0  0.6591025913895902  0.1154940948571719  0.27828014572328563  1.0000
  C   C1        1.0  0.45460363230545536  0.8401655567681267  0.22462739270070697  1.0000
  C   C2        1.0  0.6205412484759796  0.08765040125657156  0.6797606695517746  1.0000
  C   C3        1.0  0.4757863378653017  0.2603080627177635  0.23664909311409482  1.0000
  C   C4        1.0  0.9612090912639643  0.309624563823062  0.32048376176740756  1.0000
  C   C5        1.0  0.35764871563118605  0.7338268158485832  0.7412885962152101  1.0000
  C   C6        1.0  0.3910075367944884  0.8815481857865657  0.5803356910447575  1.0000
  C   C7        1.0  0.39562033049429224  0.9227874746831988  0.9000504359947523  1.0000
  C   C8        1.0  0.7562068934780005  0.2751643315514239  0.1196785758269497  1.0000
  C   C9        1.0  0.5352793844032313  0.697710243464084  0.9897706808836783  1.0000
  C   C10       1.0  0.6588859645035869  0.3317629178279866  0.43940493469630393  1.0000
  I   I1        1.0  0.9651775881346831  0.8312599643478059  0.3252984820018516  1.0000
  I   I2        1.0  0.8722069994096318  0.675137919869589  0.6373187767295702  1.0000
  O   O1        1.0  0.8046526512204081  0.1872903119043971  0.6670054961312702  1.0000
  O   O2        1.0  0.37778360738180483  0.9375329818496274  0.003580333171688821  1.0000
  O   O3        1.0  0.595936611230341  0.46112048379725623  0.48398591430206617  1.0000
  O   O4        1.0  0.3974230017062169  0.7735992486218002  0.48808147902123683  1.0000
  O   O5        1.0  0.32957008961459017  0.6965550028003731  0.1881703401026593  1.0000
  O   O6        1.0  0.7887662814143663  0.34700173044793525  0.020686821951126665  1.0000
  O   O7        1.0  0.4023066983082074  0.3656155408648548  0.175834823187074  1.0000
  O   O8        1.0  0.3548330798494599  0.556254932282201  0.7611785193272372  1.0000
  O   O9        1.0  0.6720101226165661  0.7970585297229745  0.9230658276302312  1.0000
  O   O10       1.0  0.11642017905301175  0.41225780186708444  0.37178825566813206  1.0000
data_image17
_chemical_formula_structural       Re2C10I2O10
_chemical_formula_sum              "Re2 C10 I2 O10"
_cell_length_a       6.7806348447214
_cell_length_b       6.7806348447214
_cell_length_c       10.993743
_cell_angle_alpha    90.0
_cell_angle_beta     90.0
_cell_angle_gamma    110.32517840843863

_space_group_name_H-M_alt    "P 1"
_space_group_IT_number       1

loop_
  _space_group_symop_operation_xyz
  'x, y, z'

loop_
  _atom_site_type_symbol
  _atom_site_label
  _atom_site_symmetry_multiplicity
  _atom_site_fract_x
  _atom_site_fract_y
  _atom_site_fract_z
  _atom_site_occupancy
  Re  Re1       1.0  0.2957089759024794  0.9941510631361034  0.7267969865925779  1.0000
  Re  Re2       1.0  0.7199821338941474  0.13911900874129757  0.2491265854912803  1.0000
  C   C1        1.0  0.5239784083731667  0.8017646903617845  0.25524103587831465  1.0000
  C   C2        1.0  0.6012939766016635  0.06828292747204666  0.7238973259288553  1.0000
  C   C3        1.0  0.4809186176398099  0.21374095596138265  0.2230560966460521  1.0000
  C   C4        1.0  0.9034583587393369  0.2553577928569389  0.386066286913844  1.0000
  C   C5        1.0  0.2994532609506193  0.6994062239865162  0.7486868075337273  1.0000
  C   C6        1.0  0.37493808144698054  0.9320696768069527  0.5592431300469116  1.0000
  C   C7        1.0  0.4106060945080354  0.14077727520972028  0.898751651484568  1.0000
  C   C8        1.0  0.8555114821008654  0.3406274460642264  0.1186561317170307  1.0000
  C   C9        1.0  0.8029529649604144  0.7475439441046913  0.9557710988526482  1.0000
  C   C10       1.0  0.6351989780996704  0.2775865101512076  0.40241542717295625  1.0000
  I   I1        1.0  0.8604457589380511  0.7834252310420757  0.28835721909100365  1.0000
  I   I2        1.0  0.890343909966546  0.667811807127946  0.6761339793868507  1.0000
  O   O1        1.0  0.7843292346283247  0.11911000254396852  0.7202978628089474  1.0000
  O   O2        1.0  0.47242515802031404  0.24260898503039008  0.9897199218265627  1.0000
  O   O3        1.0  0.5084301946499279  0.3539777912642219  0.4326276028682578  1.0000
  O   O4        1.0  0.5156983769557469  0.8858697446257378  0.5041918641301609  1.0000
  O   O5        1.0  0.3974541471367462  0.6497812899632696  0.2170174162308231  1.0000
  O   O6        1.0  0.9602565847904474  0.47721375384020637  0.053475447030425845  1.0000
  O   O7        1.0  0.3531863316778916  0.2840619310426956  0.2014490089550613  1.0000
  O   O8        1.0  0.35935663105201443  0.5629584575560235  0.7694168473646988  1.0000
  O   O9        1.0  0.7165605286123272  0.8092199753150334  0.024114463460430002  1.0000
  O   O10       1.0  0.07281098913435312  0.34701300117511164  0.4424325396395163  1.0000
data_image18
_chemical_formula_structural       Re2C10I2O10
_chemical_formula_sum              "Re2 C10 I2 O10"
_cell_length_a       6.7806348447214
_cell_length_b       6.7806348447214
_cell_length_c       10.993743
_cell_angle_alpha    90.0
_cell_angle_beta     90.0
_cell_angle_gamma    110.32517840843863

_space_group_name_H-M_alt    "P 1"
_space_group_IT_number       1

loop_
  _space_group_symop_operation_xyz
  'x, y, z'

loop_
  _atom_site_type_symbol
  _atom_site_label
  _atom_site_symmetry_multiplicity
  _atom_site_fract_x
  _atom_site_fract_y
  _atom_site_fract_z
  _atom_site_occupancy
  Re  Re1       1.0  0.27054833596621863  0.9462548377127512  0.7517974933503573  1.0000
  Re  Re2       1.0  0.7242996372737615  0.1396882890684492  0.22123776005612122  1.0000
  C   C1        1.0  0.49539942757690736  0.8818822680914913  0.16938756682286515  1.0000
  C   C2        1.0  0.561597734023528  0.12432308404786531  0.8010357741889743  1.0000
  C   C3        1.0  0.47165286268484063  0.2067662951398118  0.161928073257677  1.0000
  C   C4        1.0  0.9553955239313552  0.19368040755003899  0.34021518925909494  1.0000
  C   C5        1.0  0.2841418440284851  0.6519970683567585  0.755570834473981  1.0000
  C   C6        1.0  0.3914165123366205  0.8712905118084082  0.6100550386166647  1.0000
  C   C7        1.0  0.34685493668946465  0.16971608669962435  0.8900073760768216  1.0000
  C   C8        1.0  0.918891806603442  0.2915284043802098  0.09368447329714598  1.0000
  C   C9        1.0  0.9050413642116533  0.04711537850763459  0.9512089933011147  1.0000
  C   C10       1.0  0.6355924325248957  0.2751592646613972  0.36568751218964524  1.0000
  I   I1        1.0  0.8770476773431444  0.7873939213135003  0.2661361226071367  1.0000
  I   I2        1.0  0.9053851408325498  0.7023847487526725  0.740709474115094  1.0000
  O   O1        1.0  0.7290052172585876  0.18560018138431142  0.8310695800193366  1.0000
  O   O2        1.0  0.43650525358100745  0.3161323448522413  0.9458403396198997  1.0000
  O   O3        1.0  0.5688794638194221  0.3917251336254184  0.40826607528262354  1.0000
  O   O4        1.0  0.4877989311990077  0.8074399345042217  0.5278660422214243  1.0000
  O   O5        1.0  0.3269422791360234  0.8293483056976568  0.13251442291042442  1.0000
  O   O6        1.0  0.010646916337436103  0.43561626976171663  0.03672557883728883  1.0000
  O   O7        1.0  0.3004422662936478  0.21638292315106153  0.1756687959042466  1.0000
  O   O8        1.0  0.3293600213764327  0.5094112569286581  0.7399923670611438  1.0000
  O   O9        1.0  0.7900768993049856  0.8715624072585701  0.9541657565524108  1.0000
  O   O10       1.0  0.1049317886149023  0.2259515801414719  0.4164924474326308  1.0000
data_image19
_chemical_formula_structural       Re2C10I2O10
_chemical_formula_sum              "Re2 C10 I2 O10"
_cell_length_a       6.7806348447214
_cell_length_b       6.7806348447214
_cell_length_c       10.993743
_cell_angle_alpha    90.0
_cell_angle_beta     90.0
_cell_angle_gamma    110.32517840843863

_space_group_name_H-M_alt    "P 1"
_space_group_IT_number       1

loop_
  _space_group_symop_operation_xyz
  'x, y, z'

loop_
  _atom_site_type_symbol
  _atom_site_label
  _atom_site_symmetry_multiplicity
  _atom_site_fract_x
  _atom_site_fract_y
  _atom_site_fract_z
  _atom_site_occupancy
  Re  Re1       1.0  0.3191546347695465  0.8881702105495881  0.7774778288549956  1.0000
  Re  Re2       1.0  0.6867012165344025  0.1667569953657769  0.21646371708060785  1.0000
  C   C1        1.0  0.45157913340639966  0.9044967119783877  0.1727998678092353  1.0000
  C   C2        1.0  0.5842813685232122  0.07489595762205867  0.7945688196784072  1.0000
  C   C3        1.0  0.5370201150315052  0.3394302245329241  0.16628987284465438  1.0000
  C   C4        1.0  0.9931505027831795  0.3037927026599172  0.28215066802195155  1.0000
  C   C5        1.0  0.312146527553413  0.6082912488576429  0.7467152964723001  1.0000
  C   C6        1.0  0.4500294434721476  0.8927459354998396  0.6160960140409771  1.0000
  C   C7        1.0  0.2931820181038327  0.10706244276915333  0.8910940044687288  1.0000
  C   C8        1.0  0.9142463422750988  0.36732958468526206  0.09738389350575323  1.0000
  C   C9        1.0  0.889158106459783  0.9877433467989157  0.8747108691961872  1.0000
  C   C10       1.0  0.5934545640162124  0.3068616518133884  0.34495752996384765  1.0000
  I   I1        1.0  0.8751730902991687  0.7842387749128861  0.26295427618055833  1.0000
  I   I2        1.0  0.8633864944849381  0.6752961681133385  0.7388372865077487  1.0000
  O   O1        1.0  0.7369868781088497  0.20635617467641187  0.7879567192858237  1.0000
  O   O2        1.0  0.2655857456941406  0.22090610475283579  0.9599568632998775  1.0000
  O   O3        1.0  0.5702941384530155  0.3999579618328841  0.4322248107554631  1.0000
  O   O4        1.0  0.538194297932296  0.9348785499790226  0.5196152391890584  1.0000
  O   O5        1.0  0.28981538386640326  0.7511313429802738  0.14419210965779508  1.0000
  O   O6        1.0  0.014434250410203884  0.4538439554300177  0.02010993992853668  1.0000
  O   O7        1.0  0.5525528047122279  0.5283309222582789  0.1619020701921778  1.0000
  O   O8        1.0  0.324401690148864  0.4460276283837026  0.7375635847070902  1.0000
  O   O9        1.0  0.841382633517877  0.012852161546651697  0.9689230762372877  1.0000
  O   O10       1.0  0.13814532999643286  0.29545373879222087  0.34439482382261166  1.0000
data_image20
_chemical_formula_structural       Re2C10I2O10
_chemical_formula_sum              "Re2 C10 I2 O10"
_cell_length_a       6.7806348447214
_cell_length_b       6.7806348447214
_cell_length_c       10.993743
_cell_angle_alpha    90.0
_cell_angle_beta     90.0
_cell_angle_gamma    110.32517840843863

_space_group_name_H-M_alt    "P 1"
_space_group_IT_number       1

loop_
  _space_group_symop_operation_xyz
  'x, y, z'

loop_
  _atom_site_type_symbol
  _atom_site_label
  _atom_site_symmetry_multiplicity
  _atom_site_fract_x
  _atom_site_fract_y
  _atom_site_fract_z
  _atom_site_occupancy
  Re  Re1       1.0  0.29603110111817393  0.8276999521306508  0.7527277323404167  1.0000
  Re  Re2       1.0  0.6752999139186359  0.24237698153297405  0.21055029284716797  1.0000
  C   C1        1.0  0.45842381298988444  0.00011357865324890248  0.18383036636994673  1.0000
  C   C2        1.0  0.6034437941628922  0.014385214183358  0.729767492236596  1.0000
  C   C3        1.0  0.6098272246737516  0.3879455901931457  0.07317620678670464  1.0000
  C   C4        1.0  0.9886418159992497  0.2981627625206223  0.3366254975977157  1.0000
  C   C5        1.0  0.32688063442323556  0.5452009318592737  0.7593167910310017  1.0000
  C   C6        1.0  0.4144365868957862  0.9061512961025727  0.5622499006123038  1.0000
  C   C7        1.0  0.33756705047495306  0.9646819116689178  0.9013434027681024  1.0000
  C   C8        1.0  0.9268724985473238  0.4473820203055961  0.07651550106502351  1.0000
  C   C9        1.0  0.872783083991619  0.8961980779911595  0.9588088716288361  1.0000
  C   C10       1.0  0.5482239222852607  0.2590445344314347  0.3611134269152053  1.0000
  I   I1        1.0  0.8866338249661394  0.828662124151569  0.33747404325984737  1.0000
  I   I2        1.0  0.9007682154545688  0.663465615119122  0.729417890712484  1.0000
  O   O1        1.0  0.7456430943040537  0.15255860897296994  0.7199282652858442  1.0000
  O   O2        1.0  0.3337780499758256  0.05579151042275354  0.9962899807512323  1.0000
  O   O3        1.0  0.5281425615452491  0.33237366941528923  0.45533914070639364  1.0000
  O   O4        1.0  0.5267775802923713  0.9724526211925397  0.4886386868244434  1.0000
  O   O5        1.0  0.3771708855970122  0.8114884244430196  0.1593614276561831  1.0000
  O   O6        1.0  0.00515364370939329  0.43691787626701295  0.9806332779818663  1.0000
  O   O7        1.0  0.5631881195557371  0.46025718389191  0.987430837823861  1.0000
  O   O8        1.0  0.28104170950430496  0.36662768378630095  0.7806946740278841  1.0000
  O   O9        1.0  0.813393229645129  0.02562560078026732  0.9660144215997195  1.0000
  O   O10       1.0  0.08982776141005086  0.34146216283802017  0.42119174656318603  1.0000
data_image21
_chemical_formula_structural       Re2C10I2O10
_chemical_formula_sum              "Re2 C10 I2 O10"
_cell_length_a       6.7806348447214
_cell_length_b       6.7806348447214
_cell_length_c       10.993743
_cell_angle_alpha    90.0
_cell_angle_beta     90.0
_cell_angle_gamma    110.32517840843863

_space_group_name_H-M_alt    "P 1"
_space_group_IT_number       1

loop_
  _space_group_symop_operation_xyz
  'x, y, z'

loop_
  _atom_site_type_symbol
  _atom_site_label
  _atom_site_symmetry_multiplicity
  _atom_site_fract_x
  _atom_site_fract_y
  _atom_site_fract_z
  _atom_site_occupancy
  Re  Re1       1.0  0.30396595124141457  0.833748893163721  0.7078481064631909  1.0000
  Re  Re2       1.0  0.6838554642210735  0.345194204870026  0.20929770118381189  1.0000
  C   C1        1.0  0.5993725393035206  0.04079782883749372  0.18204038484114274  1.0000
  C   C2        1.0  0.5991626538163455  0.9243680870292899  0.7110234338073633  1.0000
  C   C3        1.0  0.5455315189229109  0.37398737178745584  0.04043455854152589  1.0000
  C   C4        1.0  0.9961100550697978  0.24459526578188248  0.391208404704811  1.0000
  C   C5        1.0  0.2602977437767644  0.5659743445499259  0.7620897059300374  1.0000
  C   C6        1.0  0.3427001619706976  0.7141854183392472  0.5435229322243741  1.0000
  C   C7        1.0  0.37593140368214706  0.9584098799805458  0.8658704419094252  1.0000
  C   C8        1.0  0.97363441164078  0.41033396093415475  0.1498741869837241  1.0000
  C   C9        1.0  0.8483610370292997  0.8065818456808236  0.0716876274427729  1.0000
  C   C10       1.0  0.5910332303944531  0.3509612702393943  0.37274470328370357  1.0000
  I   I1        1.0  0.891790571216943  0.8198227972628597  0.3790225693588982  1.0000
  I   I2        1.0  0.8538337616119634  0.6233664043632686  0.7021243140392095  1.0000
  O   O1        1.0  0.7745619216395561  0.014458649936967126  0.7355577713743036  1.0000
  O   O2        1.0  0.3451740634387621  0.9835019951428101  0.9732309152084232  1.0000
  O   O3        1.0  0.5736078644625296  0.3722459472039992  0.4808137436850104  1.0000
  O   O4        1.0  0.39853639544242997  0.6314349581429642  0.4745734242126265  1.0000
  O   O5        1.0  0.5637031493535896  0.8766337224853253  0.23847488424557428  1.0000
  O   O6        1.0  0.12026837036040193  0.4653034319900712  0.08578644968475174  1.0000
  O   O7        1.0  0.4122771881405673  0.43109476831731613  0.008528649775625589  1.0000
  O   O8        1.0  0.2506278725701685  0.407891295444972  0.8039329294259783  1.0000
  O   O9        1.0  0.8519327680878495  0.8052318573199021  0.9634671511409946  1.0000
  O   O10       1.0  0.06457342678191531  0.3043671202283572  0.4894905096967137  1.0000
data_image22
_chemical_formula_structural       Re2C10I2O10
_chemical_formula_sum              "Re2 C10 I2 O10"
_cell_length_a       6.7806348447214
_cell_length_b       6.7806348447214
_cell_length_c       10.993743
_cell_angle_alpha    90.0
_cell_angle_beta     90.0
_cell_angle_gamma    110.32517840843863

_space_group_name_H-M_alt    "P 1"
_space_group_IT_number       1

loop_
  _space_group_symop_operation_xyz
  'x, y, z'

loop_
  _atom_site_type_symbol
  _atom_site_label
  _atom_site_symmetry_multiplicity
  _atom_site_fract_x
  _atom_site_fract_y
  _atom_site_fract_z
  _atom_site_occupancy
  Re  Re1       1.0  0.30413183402739696  0.8366087458387257  0.6876427940470861  1.0000
  Re  Re2       1.0  0.7246734602075496  0.4000558691044681  0.20843049973565214  1.0000
  C   C1        1.0  0.6194421522026654  0.12351888543850875  0.1720961789142736  1.0000
  C   C2        1.0  0.5760249476046864  0.04871094434724092  0.7382806783771123  1.0000
  C   C3        1.0  0.5658535848364022  0.33259798655750517  0.06416724306777141  1.0000
  C   C4        1.0  0.009002740769963585  0.10270980074307877  0.45312581179769074  1.0000
  C   C5        1.0  0.24522833772013475  0.5611342845227116  0.7958080216922276  1.0000
  C   C6        1.0  0.2694831450302826  0.7144934139745859  0.530175462919124  1.0000
  C   C7        1.0  0.27391163992335277  0.9117918669908999  0.8652327396684342  1.0000
  C   C8        1.0  0.021018927745948116  0.47640136401949407  0.23541775441571797  1.0000
  C   C9        1.0  0.9633179330712968  0.9630591039496269  0.09812542125658008  1.0000
  C   C10       1.0  0.615390370988357  0.35581694994431023  0.3744151225716587  1.0000
  I   I1        1.0  0.918375068158565  0.7790348120018459  0.3632517236489952  1.0000
  I   I2        1.0  0.8256900891377781  0.5499034314670814  0.7093376595292811  1.0000
  O   O1        1.0  0.7568021224227383  0.15244630284017371  0.7337365331058274  1.0000
  O   O2        1.0  0.26900971183288513  0.9620641839259942  0.9666073184003457  1.0000
  O   O3        1.0  0.5135783905635888  0.27661835125967693  0.45573281943352745  1.0000
  O   O4        1.0  0.25892761332593683  0.5872277687210029  0.4553079011031998  1.0000
  O   O5        1.0  0.49570870587552124  0.9590347867084186  0.19557993140083324  1.0000
  O   O6        1.0  0.20822074653218658  0.50202720451269  0.24222268185938245  1.0000
  O   O7        1.0  0.45362007364543966  0.3890169587546815  0.9969545039043333  1.0000
  O   O8        1.0  0.19759792667956733  0.37871251084470314  0.7901040995910719  1.0000
  O   O9        1.0  0.7893348409811667  0.9350232039625243  0.0690257902155651  1.0000
  O   O10       1.0  0.9214215094048063  0.22664833387925645  0.47744542295263753  1.0000
data_image23
_chemical_formula_structural       Re2C10I2O10
_chemical_formula_sum              "Re2 C10 I2 O10"
_cell_length_a       6.7806348447214
_cell_length_b       6.7806348447214
_cell_length_c       10.993743
_cell_angle_alpha    90.0
_cell_angle_beta     90.0
_cell_angle_gamma    110.32517840843863

_space_group_name_H-M_alt    "P 1"
_space_group_IT_number       1

loop_
  _space_group_symop_operation_xyz
  'x, y, z'

loop_
  _atom_site_type_symbol
  _atom_site_label
  _atom_site_symmetry_multiplicity
  _atom_site_fract_x
  _atom_site_fract_y
  _atom_site_fract_z
  _atom_site_occupancy
  Re  Re1       1.0  0.28250176438880026  0.8389859844945778  0.7010365996699337  1.0000
  Re  Re2       1.0  0.7239289957869977  0.4185874572350294  0.22056322522967323  1.0000
  C   C1        1.0  0.5507620853494107  0.09554852663972246  0.21448758770293824  1.0000
  C   C2        1.0  0.5618720488012554  0.9895729526235647  0.7544363827707219  1.0000
  C   C3        1.0  0.7208938878501114  0.39820606113520846  0.03247945067776979  1.0000
  C   C4        1.0  0.887917669340298  0.15894106183284928  0.5916871443864519  1.0000
  C   C5        1.0  0.33328638073839745  0.5976547211485626  0.7559663797271218  1.0000
  C   C6        1.0  0.28316736527900566  0.7300984777492465  0.539732785209802  1.0000
  C   C7        1.0  0.22279183314893647  0.9168544101640268  0.8715641209468415  1.0000
  C   C8        1.0  0.9916890386684875  0.3710399840529626  0.2204518931651674  1.0000
  C   C9        1.0  0.8530480476855219  0.021136204395324043  0.054290559041489495  1.0000
  C   C10       1.0  0.5621530614382402  0.2951499672190636  0.38506414028965913  1.0000
  I   I1        1.0  0.9006470036668834  0.7373331516231308  0.34954340541737833  1.0000
  I   I2        1.0  0.8956943060987923  0.629968027360036  0.674512143486193  1.0000
  O   O1        1.0  0.7311465397846236  0.024473887721454597  0.7832063449674914  1.0000
  O   O2        1.0  0.21692565431251287  0.960482299931088  0.9715188955772329  1.0000
  O   O3        1.0  0.4127314383027039  0.21268178575216456  0.43651429151335197  1.0000
  O   O4        1.0  0.255585108274227  0.5698693130851415  0.475955299518532  1.0000
  O   O5        1.0  0.43998124829826146  0.9224562381259946  0.22264897610665696  1.0000
  O   O6        1.0  0.16351439998594  0.3984383003292574  0.19323579108223982  1.0000
  O   O7        1.0  0.628237859261635  0.36094460116084354  0.9367140826008421  1.0000
  O   O8        1.0  0.3232211677187804  0.42166271503914954  0.7507632264732718  1.0000
  O   O9        1.0  0.7751612104036958  0.8992495310812015  0.12274564593158965  1.0000
  O   O10       1.0  0.9063095303564331  0.07756719982901844  0.49993072374343084  1.0000
data_image24
_chemical_formula_structural       Re2C10I2O10
_chemical_formula_sum              "Re2 C10 I2 O10"
_cell_length_a       6.7806348447214
_cell_length_b       6.7806348447214
_cell_length_c       10.993743
_cell_angle_alpha    90.0
_cell_angle_beta     90.0
_cell_angle_gamma    110.32517840843863

_space_group_name_H-M_alt    "P 1"
_space_group_IT_number       1

loop_
  _space_group_symop_operation_xyz
  'x, y, z'

loop_
  _atom_site_type_symbol
  _atom_site_label
  _atom_site_symmetry_multiplicity
  _atom_site_fract_x
  _atom_site_fract_y
  _atom_site_fract_z
  _atom_site_occupancy
  Re  Re1       1.0  0.3055496713073777  0.8263078192718442  0.7165484736385928  1.0000
  Re  Re2       1.0  0.7011257875125754  0.4043636035595553  0.22738627043969994  1.0000
  C   C1        1.0  0.5463119982803569  0.11429180313012788  0.17797869270519856  1.0000
  C   C2        1.0  0.5882893807961357  0.9792833949050296  0.7585822664071369  1.0000
  C   C3        1.0  0.7261300919919209  0.39403704619982827  0.03753416468404997  1.0000
  C   C4        1.0  0.8483409101050701  0.2811506976043614  0.5659252810733137  1.0000
  C   C5        1.0  0.26688894107515204  0.5463266214405124  0.7949619999305714  1.0000
  C   C6        1.0  0.35949195470481465  0.7256803944427824  0.5532525095366276  1.0000
  C   C7        1.0  0.2922716183227252  0.8612983419408531  0.8857791847061501  1.0000
  C   C8        1.0  0.9630285633114067  0.388832170219966  0.1929741579557669  1.0000
  C   C9        1.0  0.7155689387275641  0.8090640714821087  0.96498410762803  1.0000
  C   C10       1.0  0.5915253611824638  0.23908593881431117  0.3937961475360021  1.0000
  I   I1        1.0  0.8955117657359397  0.7800701686074734  0.35726830792356645  1.0000
  I   I2        1.0  0.8878805220606287  0.6520838903724786  0.6455803143823207  1.0000
  O   O1        1.0  0.7384380017684027  0.06464991555196435  0.8081809221570398  1.0000
  O   O2        1.0  0.27678493329313003  0.8930762210077199  0.9845493095934233  1.0000
  O   O3        1.0  0.47437260087162425  0.13016257363215766  0.46607893495319935  1.0000
  O   O4        1.0  0.267823218494982  0.604665669931503  0.47772505210586064  1.0000
  O   O5        1.0  0.4997576528354262  0.9484434012526594  0.14789903381673375  1.0000
  O   O6        1.0  0.11650900094049502  0.39448052150586965  0.1269836119672413  1.0000
  O   O7        1.0  0.7017789294741443  0.3343345216635064  0.9399814151053185  1.0000
  O   O8        1.0  0.16405122592004284  0.387807646801506  0.8393401133584742  1.0000
  O   O9        1.0  0.8657200325950652  0.9214505925538763  0.012066084043902636  1.0000
  O   O10       1.0  0.8975913592590968  0.1377237472399546  0.5691087316657827  1.0000
data_image25
_chemical_formula_structural       Re2C10I2O10
_chemical_formula_sum              "Re2 C10 I2 O10"
_cell_length_a       6.7806348447214
_cell_length_b       6.7806348447214
_cell_length_c       10.993743
_cell_angle_alpha    90.0
_cell_angle_beta     90.0
_cell_angle_gamma    110.32517840843863

_space_group_name_H-M_alt    "P 1"
_space_group_IT_number       1

loop_
  _space_group_symop_operation_xyz
  'x, y, z'

loop_
  _atom_site_type_symbol
  _atom_site_label
  _atom_site_symmetry_multiplicity
  _atom_site_fract_x
  _atom_site_fract_y
  _atom_site_fract_z
  _atom_site_occupancy
  Re  Re1       1.0  0.29560438612529816  0.8557171379279798  0.7489784021359109  1.0000
  Re  Re2       1.0  0.7400512282027798  0.3740042626010054  0.22502390028544997  1.0000
  C   C1        1.0  0.6281382367141696  0.07654796388371365  0.22649678440373794  1.0000
  C   C2        1.0  0.6012959681182297  0.963254732826997  0.7281712141126948  1.0000
  C   C3        1.0  0.6193590633865652  0.3784215688746271  0.07476723201751749  1.0000
  C   C4        1.0  0.025075578083355265  0.28231865754669344  0.5473674420399299  1.0000
  C   C5        1.0  0.20108959134742244  0.5797736274251577  0.8154436517212161  1.0000
  C   C6        1.0  0.3457263627871548  0.7000286089223187  0.6121472808660381  1.0000
  C   C7        1.0  0.17433106315393032  0.9192739567434562  0.8969034260080242  1.0000
  C   C8        1.0  0.973183735608939  0.37432498592244023  0.12351960760523152  1.0000
  C   C9        1.0  0.6413121577438873  0.891982488153294  0.9502007050130736  1.0000
  C   C10       1.0  0.5595182321835228  0.272343096720258  0.39582444707131637  1.0000
  I   I1        1.0  0.8598484383800691  0.7239547219349745  0.32247128195400065  1.0000
  I   I2        1.0  0.8937469747457931  0.6720117336194231  0.6449241596959758  1.0000
  O   O1        1.0  0.7727874942927682  0.04300529477045  0.7331835810804478  1.0000
  O   O2        1.0  0.20315444779201441  0.9572613742745514  0.9970028946799594  1.0000
  O   O3        1.0  0.4617091479901202  0.22235008834931436  0.4804326441859141  1.0000
  O   O4        1.0  0.3358468511802713  0.6418785425050457  0.510009494790379  1.0000
  O   O5        1.0  0.5444099849992426  0.8917265837238599  0.22467368472297966  1.0000
  O   O6        1.0  0.13942263638964186  0.4186534409451695  0.06256143165133231  1.0000
  O   O7        1.0  0.5306940163274272  0.40150715957215244  0.98514613919481  1.0000
  O   O8        1.0  0.14257963106972316  0.3866505137527029  0.8176753671431293  1.0000
  O   O9        1.0  0.805133870237994  0.8701651158765826  0.9675027193960758  1.0000
  O   O10       1.0  0.04265066773726545  0.18231750470283856  0.4739844874796613  1.0000
data_image26
_chemical_formula_structural       Re2C10I2O10
_chemical_formula_sum              "Re2 C10 I2 O10"
_cell_length_a       6.7806348447214
_cell_length_b       6.7806348447214
_cell_length_c       10.993743
_cell_angle_alpha    90.0
_cell_angle_beta     90.0
_cell_angle_gamma    110.32517840843863

_space_group_name_H-M_alt    "P 1"
_space_group_IT_number       1

loop_
  _space_group_symop_operation_xyz
  'x, y, z'

loop_
  _atom_site_type_symbol
  _atom_site_label
  _atom_site_symmetry_multiplicity
  _atom_site_fract_x
  _atom_site_fract_y
  _atom_site_fract_z
  _atom_site_occupancy
  Re  Re1       1.0  0.2767566139781948  0.892179457262303  0.732710239980851  1.0000
  Re  Re2       1.0  0.7266249652090695  0.3048456217735454  0.244235474362668  1.0000
  C   C1        1.0  0.6241275352733339  0.022484449279149832  0.198155080991804  1.0000
  C   C2        1.0  0.5677402769608155  0.05321121742282775  0.7841125400378621  1.0000
  C   C3        1.0  0.6240771462395681  0.43195645553713524  0.10060590654151311  1.0000
  C   C4        1.0  0.07358746935693197  0.2379782342361427  0.4709984633156585  1.0000
  C   C5        1.0  0.27948005838029144  0.6222042046634635  0.7857134936804038  1.0000
  C   C6        1.0  0.3701744180458138  0.7573848802308558  0.5801713642183319  1.0000
  C   C7        1.0  0.18746097285586805  0.9855083506503672  0.8744255395580771  1.0000
  C   C8        1.0  0.9976785157014283  0.4118785988698721  0.12845304856572828  1.0000
  C   C9        1.0  0.603444956053506  0.8296575265227375  0.958049536972277  1.0000
  C   C10       1.0  0.592679017258122  0.25549398448323557  0.4057884104994944  1.0000
  I   I1        1.0  0.898650391746407  0.747815676785372  0.31321951510720314  1.0000
  I   I2        1.0  0.8747160494655982  0.6214840474797576  0.6589997469198717  1.0000
  O   O1        1.0  0.7481378189087551  0.11973042403351952  0.8005576326435453  1.0000
  O   O2        1.0  0.18379139608723238  0.04006590540373334  0.9686693967044447  1.0000
  O   O3        1.0  0.4824016152563065  0.28899875678806763  0.4751786079515349  1.0000
  O   O4        1.0  0.4657098878073036  0.7361658865444112  0.4970993088197121  1.0000
  O   O5        1.0  0.49057070738617864  0.8411779503345577  0.1828435846994876  1.0000
  O   O6        1.0  0.1627428822120267  0.5430921578101169  0.12326131505685983  1.0000
  O   O7        1.0  0.48877943808406465  0.45520138016740297  0.045745650228466085  1.0000
  O   O8        1.0  0.25130243711076083  0.44559950868817605  0.816168854573086  1.0000
  O   O9        1.0  0.7637166032735444  0.8180695055230721  0.9603755950879117  1.0000
  O   O10       1.0  0.06339858619032024  0.18842899188887594  0.3690555056760427  1.0000
data_image27
_chemical_formula_structural       Re2C10I2O10
_chemical_formula_sum              "Re2 C10 I2 O10"
_cell_length_a       6.7806348447214
_cell_length_b       6.7806348447214
_cell_length_c       10.993743
_cell_angle_alpha    90.0
_cell_angle_beta     90.0
_cell_angle_gamma    110.32517840843863

_space_group_name_H-M_alt    "P 1"
_space_group_IT_number       1

loop_
  _space_group_symop_operation_xyz
  'x, y, z'

loop_
  _atom_site_type_symbol
  _atom_site_label
  _atom_site_symmetry_multiplicity
  _atom_site_fract_x
  _atom_site_fract_y
  _atom_site_fract_z
  _atom_site_occupancy
  Re  Re1       1.0  0.2571457171343695  0.8523036464272854  0.7363901821255304  1.0000
  Re  Re2       1.0  0.7396267573873571  0.32249941062234944  0.25322229772389215  1.0000
  C   C1        1.0  0.610064185940129  0.022563440906289367  0.2629565631417508  1.0000
  C   C2        1.0  0.5479185860570643  0.01673781076446152  0.7877922718255583  1.0000
  C   C3        1.0  0.5572882325892999  0.3472997750732379  0.13423507618641542  1.0000
  C   C4        1.0  0.11736459273651871  0.3361319645899934  0.4627299679883511  1.0000
  C   C5        1.0  0.23503421731454166  0.5578411706333642  0.733222262739926  1.0000
  C   C6        1.0  0.4127702482278683  0.8827015028948202  0.5783922259028426  1.0000
  C   C7        1.0  0.15575299048833569  0.9886845926967922  0.8793497372890607  1.0000
  C   C8        1.0  0.971554447999202  0.428251963678962  0.11254681031351416  1.0000
  C   C9        1.0  0.6509102294201197  0.8326235444723057  0.0380600778276845  1.0000
  C   C10       1.0  0.6166800784912378  0.34369969904790265  0.4244510253315119  1.0000
  I   I1        1.0  0.9168084840541482  0.7342783543549426  0.303879417998516  1.0000
  I   I2        1.0  0.8933699254468332  0.6304208516450369  0.6384166257350347  1.0000
  O   O1        1.0  0.7084948429959114  0.16047405477659635  0.7790004813366729  1.0000
  O   O2        1.0  0.1677794782365878  0.09313443235643981  0.9618224693466673  1.0000
  O   O3        1.0  0.5078519709701289  0.3699630225329502  0.5032590738950944  1.0000
  O   O4        1.0  0.49594140605200615  0.8262836451160707  0.4990049599254979  1.0000
  O   O5        1.0  0.4781181063544294  0.8758262766164421  0.3002095953594076  1.0000
  O   O6        1.0  0.12755821759091293  0.5077169592171821  0.05705825333471915  1.0000
  O   O7        1.0  0.43324883055932195  0.3669477698094255  0.07316845929886949  1.0000
  O   O8        1.0  0.2077259101577651  0.37788654448689696  0.7489556409554093  1.0000
  O   O9        1.0  0.6274151482241568  0.7649825021617023  0.9387162786218918  1.0000
  O   O10       1.0  0.16348841666861522  0.311664605007634  0.3661975812824426  1.0000
data_image28
_chemical_formula_structural       Re2C10I2O10
_chemical_formula_sum              "Re2 C10 I2 O10"
_cell_length_a       6.7806348447214
_cell_length_b       6.7806348447214
_cell_length_c       10.993743
_cell_angle_alpha    90.0
_cell_angle_beta     90.0
_cell_angle_gamma    110.32517840843863

_space_group_name_H-M_alt    "P 1"
_space_group_IT_number       1

loop_
  _space_group_symop_operation_xyz
  'x, y, z'

loop_
  _atom_site_type_symbol
  _atom_site_label
  _atom_site_symmetry_multiplicity
  _atom_site_fract_x
  _atom_site_fract_y
  _atom_site_fract_z
  _atom_site_occupancy
  Re  Re1       1.0  0.2914377411065324  0.8352532117508157  0.7541570246647542  1.0000
  Re  Re2       1.0  0.7183019789286516  0.3159862282454782  0.2678080482369893  1.0000
  C   C1        1.0  0.6215847237724439  0.9776294617223029  0.22410833659453264  1.0000
  C   C2        1.0  0.5580828263891143  0.9828547279242195  0.8216084441264708  1.0000
  C   C3        1.0  0.4982331047442185  0.4041535481616304  0.15540917068640625  1.0000
  C   C4        1.0  0.022034920680172404  0.2856974572188159  0.278606795812134  1.0000
  C   C5        1.0  0.2942264519181721  0.5495829672772065  0.7273720561919153  1.0000
  C   C6        1.0  0.42794366868819056  0.9342102502418156  0.6094587681857645  1.0000
  C   C7        1.0  0.20713777249505871  0.044113128633776144  0.829908440875058  1.0000
  C   C8        1.0  0.8042068172389367  0.3782732596033936  0.020781110164324514  1.0000
  C   C9        1.0  0.7936655735718268  0.9546913450961547  0.010176323930283893  1.0000
  C   C10       1.0  0.5871819677257737  0.3355536389731322  0.4288410346102632  1.0000
  I   I1        1.0  0.926806618734798  0.734561062453698  0.2887747875924595  1.0000
  I   I2        1.0  0.9062027699315499  0.6171011370370698  0.655906149395395  1.0000
  O   O1        1.0  0.7020526153718738  0.14047140689492088  0.8321106196731114  1.0000
  O   O2        1.0  0.14391033885560867  0.17486877346326724  0.8831653622932838  1.0000
  O   O3        1.0  0.4834606411045262  0.3498483554464844  0.5093377885580153  1.0000
  O   O4        1.0  0.45113454915680623  0.880059930024903  0.5082429668582354  1.0000
  O   O5        1.0  0.4464938648326629  0.8909538627504909  0.21511440573665414  1.0000
  O   O6        1.0  0.8879751672670438  0.42761901839329786  0.9318854176490646  1.0000
  O   O7        1.0  0.43966509813640947  0.4996921608154165  0.08157872600047014  1.0000
  O   O8        1.0  0.31198576545232304  0.3850607028914922  0.7099562847276338  1.0000
  O   O9        1.0  0.6179173873857856  0.8528541753698385  0.014397846367716571  1.0000
  O   O10       1.0  0.12312671808661581  0.3460669005220015  0.3685702893446841  1.0000
data_image29
_chemical_formula_structural       Re2C10I2O10
_chemical_formula_sum              "Re2 C10 I2 O10"
_cell_length_a       6.7806348447214
_cell_length_b       6.7806348447214
_cell_length_c       10.993743
_cell_angle_alpha    90.0
_cell_angle_beta     90.0
_cell_angle_gamma    110.32517840843863

_space_group_name_H-M_alt    "P 1"
_space_group_IT_number       1

loop_
  _space_group_symop_operation_xyz
  'x, y, z'

loop_
  _atom_site_type_symbol
  _atom_site_label
  _atom_site_symmetry_multiplicity
  _atom_site_fract_x
  _atom_site_fract_y
  _atom_site_fract_z
  _atom_site_occupancy
  Re  Re1       1.0  0.32815260595304774  0.8371553552491137  0.7459984993510577  1.0000
  Re  Re2       1.0  0.6891816751265927  0.3076712872344619  0.24550603433453827  1.0000
  C   C1        1.0  0.5240702714150389  0.024161702710349786  0.2685765900332311  1.0000
  C   C2        1.0  0.6086730631071182  0.07374885738327085  0.7975111320338675  1.0000
  C   C3        1.0  0.42580829699701817  0.3531927699832655  0.1471932246159855  1.0000
  C   C4        1.0  0.8888146658111818  0.24544695641094855  0.33629603700135996  1.0000
  C   C5        1.0  0.38359446122301444  0.5600376886985621  0.7245285445962694  1.0000
  C   C6        1.0  0.4230440031712762  0.9190079228893056  0.5883935465783574  1.0000
  C   C7        1.0  0.18411536042228605  0.024802589277324705  0.8156650456805321  1.0000
  C   C8        1.0  0.8546557622123836  0.47831074436796817  0.08319378239368137  1.0000
  C   C9        1.0  0.7469806678808465  0.8590835768472629  0.9928573084486723  1.0000
  C   C10       1.0  0.5254064875627756  0.3465275830202532  0.39689627875586503  1.0000
  I   I1        1.0  0.9211599557752845  0.7842654949812621  0.2891375935503692  1.0000
  I   I2        1.0  0.9262582989864677  0.5784396090706438  0.6986348425926402  1.0000
  O   O1        1.0  0.7791128329997751  0.16283538871201517  0.7648684465291713  1.0000
  O   O2        1.0  0.11191481399125269  0.14390699390457895  0.8451337574211201  1.0000
  O   O3        1.0  0.3675581041079405  0.30013300162511625  0.4586131175659303  1.0000
  O   O4        1.0  0.5366983605282702  0.9479541285482251  0.4954469207985276  1.0000
  O   O5        1.0  0.373133040893343  0.8955299670465271  0.22809779901381272  1.0000
  O   O6        1.0  0.9845361158166342  0.6060523990961526  0.033902170687643125  1.0000
  O   O7        1.0  0.28881253387234923  0.3659849340459972  0.08070698394966315  1.0000
  O   O8        1.0  0.48330895856250566  0.45406642449499013  0.7517316674208577  1.0000
  O   O9        1.0  0.6159927866884454  0.6950184606455939  0.9818617098376058  1.0000
  O   O10       1.0  0.050503278488626464  0.32863816744001706  0.39423053394368246  1.0000
data_image30
_chemical_formula_structural       Re2C10I2O10
_chemical_formula_sum              "Re2 C10 I2 O10"
_cell_length_a       6.7806348447214
_cell_length_b       6.7806348447214
_cell_length_c       10.993743
_cell_angle_alpha    90.0
_cell_angle_beta     90.0
_cell_angle_gamma    110.32517840843863

_space_group_name_H-M_alt    "P 1"
_space_group_IT_number       1

loop_
  _space_group_symop_operation_xyz
  'x, y, z'

loop_
  _atom_site_type_symbol
  _atom_site_label
  _atom_site_symmetry_multiplicity
  _atom_site_fract_x
  _atom_site_fract_y
  _atom_site_fract_z
  _atom_site_occupancy
  Re  Re1       1.0  0.3272779899659014  0.8325719123196244  0.7626652166073502  1.0000
  Re  Re2       1.0  0.711332832370394  0.3673126412879697  0.2229048264830126  1.0000
  C   C1        1.0  0.589245349050703  0.08593842042290967  0.2239678430798972  1.0000
  C   C2        1.0  0.6108630101727544  0.035224972651784855  0.7927126430050946  1.0000
  C   C3        1.0  0.38598131526637613  0.232244072075883  0.21375774353650984  1.0000
  C   C4        1.0  0.9074481227950311  0.33725867595342296  0.3510510701792409  1.0000
  C   C5        1.0  0.33991166701124187  0.5756727317604912  0.8465972186140833  1.0000
  C   C6        1.0  0.330113416947549  0.7482527632089688  0.5868149358778554  1.0000
  C   C7        1.0  0.17734815974921503  0.9515967071249168  0.8788827978216708  1.0000
  C   C8        1.0  0.9836392424612074  0.42140175486592063  0.09301189494519996  1.0000
  C   C9        1.0  0.7340222061894225  0.8470751926555895  0.9548836520385798  1.0000
  C   C10       1.0  0.5293262711058532  0.40942261673772884  0.3613091417202077  1.0000
  I   I1        1.0  0.8638497783149702  0.8039041064368118  0.2867855069140372  1.0000
  I   I2        1.0  0.9229696688660921  0.56971180884044  0.6392189106013287  1.0000
  O   O1        1.0  0.7958037895307772  0.07714767412957385  0.7681280055301225  1.0000
  O   O2        1.0  0.08509135820032387  0.9766872821832676  0.9570738415614473  1.0000
  O   O3        1.0  0.4680544121019802  0.4074157478037148  0.4596010048112075  1.0000
  O   O4        1.0  0.42112295385371096  0.7312900028074792  0.49769624729485495  1.0000
  O   O5        1.0  0.5585060475888025  0.9242380093115935  0.1749569308920005  1.0000
  O   O6        1.0  0.1605812849225694  0.5194996242469964  0.09742406352511021  1.0000
  O   O7        1.0  0.19791734477247386  0.21537627656844616  0.20178347324727397  1.0000
  O   O8        1.0  0.3364044332471867  0.4388233478361823  0.9081994249660628  1.0000
  O   O9        1.0  0.7867372571622627  0.7097580172073561  0.9855348971264919  1.0000
  O   O10       1.0  0.9948375779584613  0.3589612620441842  0.4490221277855017  1.0000
data_image31
_chemical_formula_structural       Re2C10I2O10
_chemical_formula_sum              "Re2 C10 I2 O10"
_cell_length_a       6.7806348447214
_cell_length_b       6.7806348447214
_cell_length_c       10.993743
_cell_angle_alpha    90.0
_cell_angle_beta     90.0
_cell_angle_gamma    110.32517840843863

_space_group_name_H-M_alt    "P 1"
_space_group_IT_number       1

loop_
  _space_group_symop_operation_xyz
  'x, y, z'

loop_
  _atom_site_type_symbol
  _atom_site_label
  _atom_site_symmetry_multiplicity
  _atom_site_fract_x
  _atom_site_fract_y
  _atom_site_fract_z
  _atom_site_occupancy
  Re  Re1       1.0  0.3421679988619991  0.809392633851714  0.750103915987501  1.0000
  Re  Re2       1.0  0.6645292141439034  0.4180661974486099  0.21631394728812628  1.0000
  C   C1        1.0  0.5319728855700879  0.08263267152656684  0.15028655725581014  1.0000
  C   C2        1.0  0.6424927456855185  0.9280121085139941  0.7475214450409143  1.0000
  C   C3        1.0  0.4087803280764388  0.28498963831180946  0.3177547946622588  1.0000
  C   C4        1.0  0.8482645631591563  0.33924797589993577  0.3298882166461809  1.0000
  C   C5        1.0  0.3352132847855669  0.5258052796128706  0.8005483577176843  1.0000
  C   C6        1.0  0.3960235293144474  0.7608152661547393  0.5731712931603242  1.0000
  C   C7        1.0  0.2626408038413768  0.9356895203019509  0.8986250647404229  1.0000
  C   C8        1.0  0.9504444894164449  0.5141386054867867  0.10658462753048277  1.0000
  C   C9        1.0  0.6692285013497965  0.7339185160248305  0.9681638314419071  1.0000
  C   C10       1.0  0.5358726392516762  0.37400670507593303  0.4319000429662378  1.0000
  I   I1        1.0  0.8803063407681353  0.7945474384865293  0.303629765420988  1.0000
  I   I2        1.0  0.9903396427778867  0.6142706978472878  0.6513321487467875  1.0000
  O   O1        1.0  0.8217478652501929  0.9680650644521293  0.7283461791052643  1.0000
  O   O2        1.0  0.2304897446633718  0.02365027452150925  0.9829747942544972  1.0000
  O   O3        1.0  0.5018904226252868  0.29750545213390245  0.5334626698731743  1.0000
  O   O4        1.0  0.40679939887863337  0.7094768920816017  0.47238320599665473  1.0000
  O   O5        1.0  0.443983877140883  0.9075288008809466  0.13968719591505413  1.0000
  O   O6        1.0  0.11052508996155336  0.6027927989510132  0.07382549517421032  1.0000
  O   O7        1.0  0.21273273648817675  0.20612614893823347  0.2945801299102025  1.0000
  O   O8        1.0  0.26961750875599155  0.3442282287475221  0.8137393802859909  1.0000
  O   O9        1.0  0.7230421586276338  0.5999507661416255  0.016841109740603377  1.0000
  O   O10       1.0  0.8044370817313854  0.22529883934266792  0.42331357907687855  1.0000
data_image32
_chemical_formula_structural       Re2C10I2O10
_chemical_formula_sum              "Re2 C10 I2 O10"
_cell_length_a       6.7806348447214
_cell_length_b       6.7806348447214
_cell_length_c       10.993743
_cell_angle_alpha    90.0
_cell_angle_beta     90.0
_cell_angle_gamma    110.32517840843863

_space_group_name_H-M_alt    "P 1"
_space_group_IT_number       1

loop_
  _space_group_symop_operation_xyz
  'x, y, z'

loop_
  _atom_site_type_symbol
  _atom_site_label
  _atom_site_symmetry_multiplicity
  _atom_site_fract_x
  _atom_site_fract_y
  _atom_site_fract_z
  _atom_site_occupancy
  Re  Re1       1.0  0.3860134666278758  0.760304681317597  0.7348999355301101  1.0000
  Re  Re2       1.0  0.6430280603197243  0.4363604024403924  0.23611283541997352  1.0000
  C   C1        1.0  0.6014192925723088  0.1538690753827272  0.15886472007032285  1.0000
  C   C2        1.0  0.6641184394605245  0.9543789311993063  0.7244876033032893  1.0000
  C   C3        1.0  0.3744984689643465  0.23886870982361522  0.3277387258874743  1.0000
  C   C4        1.0  0.7775196551834354  0.3482497676616649  0.3918015488502101  1.0000
  C   C5        1.0  0.27919403799613485  0.43862581886457286  0.7000980521352825  1.0000
  C   C6        1.0  0.47817854588583647  0.8102433762452173  0.5610850693475127  1.0000
  C   C7        1.0  0.30643493315333714  0.9809934658141845  0.8360602718547384  1.0000
  C   C8        1.0  0.8924646862709515  0.46620647842847385  0.15872967546665195  1.0000
  C   C9        1.0  0.5240446466716656  0.6671034563675746  0.8768976557783612  1.0000
  C   C10       1.0  0.5925057945867392  0.422567871584685  0.4283734992378656  1.0000
  I   I1        1.0  0.8572970692303159  0.8184288703822052  0.3168800285535192  1.0000
  I   I2        1.0  0.9752735547160967  0.5759880753498879  0.6758907271918689  1.0000
  O   O1        1.0  0.8213934996166757  0.04971353748628333  0.7723222268163309  1.0000
  O   O2        1.0  0.2876539488252563  0.12329143007996235  0.8944077755036564  1.0000
  O   O3        1.0  0.5053746106410495  0.4561297346676598  0.5206171252440426  1.0000
  O   O4        1.0  0.4848510634226175  0.8608786407188731  0.46136099619438914  1.0000
  O   O5        1.0  0.5832567147928129  0.991730228762513  0.0990902831281313  1.0000
  O   O6        1.0  0.024203471149534837  0.45925556023843717  0.09577982666116472  1.0000
  O   O7        1.0  0.2241983562240808  0.2808446280709025  0.3305510815780662  1.0000
  O   O8        1.0  0.22833365427426222  0.25214608706735364  0.6734104611702655  1.0000
  O   O9        1.0  0.6454805231747035  0.6628779256295743  0.9541030892499796  1.0000
  O   O10       1.0  0.8428220061848137  0.23427716841124321  0.4535798456680803  1.0000
data_image33
_chemical_formula_structural       Re2C10I2O10
_chemical_formula_sum              "Re2 C10 I2 O10"
_cell_length_a       6.7806348447214
_cell_length_b       6.7806348447214
_cell_length_c       10.993743
_cell_angle_alpha    90.0
_cell_angle_beta     90.0
_cell_angle_gamma    110.32517840843863

_space_group_name_H-M_alt    "P 1"
_space_group_IT_number       1

loop_
  _space_group_symop_operation_xyz
  'x, y, z'

loop_
  _atom_site_type_symbol
  _atom_site_label
  _atom_site_symmetry_multiplicity
  _atom_site_fract_x
  _atom_site_fract_y
  _atom_site_fract_z
  _atom_site_occupancy
  Re  Re1       1.0  0.3748581910460694  0.7794499162213884  0.734205628264293  1.0000
  Re  Re2       1.0  0.6670574051636371  0.39198923371933025  0.2504640240800072  1.0000
  C   C1        1.0  0.5994024381115111  0.13490199212495502  0.15399088736770428  1.0000
  C   C2        1.0  0.6740925495626144  0.976000955314694  0.7705649918577971  1.0000
  C   C3        1.0  0.3758335896652687  0.2792504489546043  0.2929299164079746  1.0000
  C   C4        1.0  0.7494888425075084  0.22538715075283763  0.3857444229754631  1.0000
  C   C5        1.0  0.31656257700738566  0.49346017462618497  0.6889007778985695  1.0000
  C   C6        1.0  0.3886470966594795  0.8740489051028912  0.557463662481369  1.0000
  C   C7        1.0  0.33844013391034045  0.1044653155748887  0.7984235764563308  1.0000
  C   C8        1.0  0.8977494956240565  0.5369899479764467  0.13642453220050757  1.0000
  C   C9        1.0  0.4648973964780837  0.7063352703318413  0.9007882211936717  1.0000
  C   C10       1.0  0.6688210130395943  0.5254694698853175  0.4332402832155809  1.0000
  I   I1        1.0  0.8557192333918647  0.8081168442921238  0.28109989633808546  1.0000
  I   I2        1.0  0.9686849262615255  0.5356163354230477  0.705068615488021  1.0000
  O   O1        1.0  0.8319193343070187  0.07980352800857778  0.811830479525759  1.0000
  O   O2        1.0  0.2982148021332858  0.20193269514663825  0.8782331995153644  1.0000
  O   O3        1.0  0.6058477377608136  0.6189897016555164  0.5052016858730718  1.0000
  O   O4        1.0  0.3861562337932111  0.8975887196074285  0.4593637625131164  1.0000
  O   O5        1.0  0.5502956462318347  0.9847031794680812  0.09995526277354318  1.0000
  O   O6        1.0  0.0315795985733452  0.5701034606478015  0.06310814748380517  1.0000
  O   O7        1.0  0.216813000564702  0.3083340222891123  0.27765968479395386  1.0000
  O   O8        1.0  0.3052494202169884  0.32834928315975576  0.6416513867663746  1.0000
  O   O9        1.0  0.5336920867056388  0.6276060988186595  0.9757054152190651  1.0000
  O   O10       1.0  0.8202582972865786  0.1699329209914176  0.4741711956829901  1.0000
data_image34
_chemical_formula_structural       Re2C10I2O10
_chemical_formula_sum              "Re2 C10 I2 O10"
_cell_length_a       6.7806348447214
_cell_length_b       6.7806348447214
_cell_length_c       10.993743
_cell_angle_alpha    90.0
_cell_angle_beta     90.0
_cell_angle_gamma    110.32517840843863

_space_group_name_H-M_alt    "P 1"
_space_group_IT_number       1

loop_
  _space_group_symop_operation_xyz
  'x, y, z'

loop_
  _atom_site_type_symbol
  _atom_site_label
  _atom_site_symmetry_multiplicity
  _atom_site_fract_x
  _atom_site_fract_y
  _atom_site_fract_z
  _atom_site_occupancy
  Re  Re1       1.0  0.3815397604969349  0.8115858629758412  0.7599350013723434  1.0000
  Re  Re2       1.0  0.7234411774177764  0.385770875031767  0.2864125110015107  1.0000
  C   C1        1.0  0.5464797675581043  0.15107534678730117  0.1655520071878657  1.0000
  C   C2        1.0  0.6766396122121006  0.8577993681559815  0.7802661585787641  1.0000
  C   C3        1.0  0.4208535896808468  0.3476758754615816  0.24952217850330605  1.0000
  C   C4        1.0  0.6941289459954423  0.1304757280128968  0.4003628047523608  1.0000
  C   C5        1.0  0.3227984203984886  0.46656795816608054  0.7015614349269589  1.0000
  C   C6        1.0  0.2444104479330659  0.9404811668340691  0.6126246586941287  1.0000
  C   C7        1.0  0.31142897088864196  0.042719125453971385  0.8373226000955185  1.0000
  C   C8        1.0  0.7829195293869654  0.48848156427219525  0.12281368664793267  1.0000
  C   C9        1.0  0.4130257772973505  0.6613175202471947  0.9066845714133825  1.0000
  C   C10       1.0  0.5891356982440178  0.569183920371767  0.4016802778705066  1.0000
  I   I1        1.0  0.8848615297501484  0.8058262640825756  0.2514030313536651  1.0000
  I   I2        1.0  0.9894418053763868  0.5577429409621744  0.6614905413984669  1.0000
  O   O1        1.0  0.8553771113303489  0.9089139909246011  0.760267658638824  1.0000
  O   O2        1.0  0.2634219832454585  0.1811164504199516  0.8910718080124097  1.0000
  O   O3        1.0  0.45857052167360407  0.6315521620794597  0.44719234189115  1.0000
  O   O4        1.0  0.22060337000675984  0.9562755898270302  0.5135863212875181  1.0000
  O   O5        1.0  0.4641353794709669  0.01457694435609369  0.10600420059916482  1.0000
  O   O6        1.0  0.8079712997055088  0.5320963038129134  0.019044780546341834  1.0000
  O   O7        1.0  0.27143259541221326  0.3876915911785494  0.21668256861685833  1.0000
  O   O8        1.0  0.3367882522195531  0.34625379673275836  0.6351168800910718  1.0000
  O   O9        1.0  0.41367777973321046  0.5418405521916384  0.9826247258235548  1.0000
  O   O10       1.0  0.7127383597431101  0.9793087735925755  0.44077329109792956  1.0000
data_image35
_chemical_formula_structural       Re2C10I2O10
_chemical_formula_sum              "Re2 C10 I2 O10"
_cell_length_a       6.7806348447214
_cell_length_b       6.7806348447214
_cell_length_c       10.993743
_cell_angle_alpha    90.0
_cell_angle_beta     90.0
_cell_angle_gamma    110.32517840843863

_space_group_name_H-M_alt    "P 1"
_space_group_IT_number       1

loop_
  _space_group_symop_operation_xyz
  'x, y, z'

loop_
  _atom_site_type_symbol
  _atom_site_label
  _atom_site_symmetry_multiplicity
  _atom_site_fract_x
  _atom_site_fract_y
  _atom_site_fract_z
  _atom_site_occupancy
  Re  Re1       1.0  0.37254604791365303  0.834801914775004  0.7739254120041698  1.0000
  Re  Re2       1.0  0.7103852219447309  0.3633709027095209  0.2676188984371829  1.0000
  C   C1        1.0  0.6235896652066136  0.1172613692970137  0.14490682621578416  1.0000
  C   C2        1.0  0.6602433412722232  0.9853317479845376  0.7410842150320166  1.0000
  C   C3        1.0  0.4108406167470669  0.31461838815356563  0.236307636744393  1.0000
  C   C4        1.0  0.6428910282529683  0.13150623243139434  0.3785819840456353  1.0000
  C   C5        1.0  0.3934034014609966  0.5439995714570579  0.7275443032130108  1.0000
  C   C6        1.0  0.2301051723215248  0.9443788692948586  0.6192868207945337  1.0000
  C   C7        1.0  0.2467018898546971  0.9793398597321756  0.8834743809073711  1.0000
  C   C8        1.0  0.7358415724071703  0.45419867033153216  0.08480927373499593  1.0000
  C   C9        1.0  0.35777245676811137  0.6511449985102188  0.9292481119723544  1.0000
  C   C10       1.0  0.6960370541974469  0.5374224789067272  0.3931803327958848  1.0000
  I   I1        1.0  0.9320164254994137  0.814586462992714  0.24961811349700422  1.0000
  I   I2        1.0  0.96712823364001  0.5254693390634959  0.6655485606324534  1.0000
  O   O1        1.0  0.8094499924128143  0.13102405935947598  0.7184230231976182  1.0000
  O   O2        1.0  0.19884241669908587  0.11507800290499692  0.9334169045790018  1.0000
  O   O3        1.0  0.6678590013267811  0.6706372855863956  0.4567834390352573  1.0000
  O   O4        1.0  0.1432941385566957  0.9767860569286331  0.5436665756843524  1.0000
  O   O5        1.0  0.5619283971678984  0.9402272693399645  0.10314336079414402  1.0000
  O   O6        1.0  0.7906845663884743  0.49681731278235713  0.9869964868716741  1.0000
  O   O7        1.0  0.2571446612924264  0.27793476736441913  0.17450476864725248  1.0000
  O   O8        1.0  0.47469156287063696  0.4288872784019314  0.6903467873723993  1.0000
  O   O9        1.0  0.3739359118518252  0.6129227728832825  0.026060927157858016  1.0000
  O   O10       1.0  0.5854807746277331  0.9965391026164934  0.44539911606634197  1.0000
data_image36
_chemical_formula_structural       Re2C10I2O10
_chemical_formula_sum              "Re2 C10 I2 O10"
_cell_length_a       6.7806348447214
_cell_length_b       6.7806348447214
_cell_length_c       10.993743
_cell_angle_alpha    90.0
_cell_angle_beta     90.0
_cell_angle_gamma    110.32517840843863

_space_group_name_H-M_alt    "P 1"
_space_group_IT_number       1

loop_
  _space_group_symop_operation_xyz
  'x, y, z'

loop_
  _atom_site_type_symbol
  _atom_site_label
  _atom_site_symmetry_multiplicity
  _atom_site_fract_x
  _atom_site_fract_y
  _atom_site_fract_z
  _atom_site_occupancy
  Re  Re1       1.0  0.3515843062608836  0.8739874054749558  0.7861875561275737  1.0000
  Re  Re2       1.0  0.7057491491808907  0.3730784260046143  0.24322065295548634  1.0000
  C   C1        1.0  0.6448107632860456  0.0718895881256052  0.13245516481889336  1.0000
  C   C2        1.0  0.6338522663828868  0.9772628399152635  0.7165198658889446  1.0000
  C   C3        1.0  0.4233480294929933  0.3855129752596515  0.2272314514340437  1.0000
  C   C4        1.0  0.6156651480984523  0.12905889714214436  0.36299279647622446  1.0000
  C   C5        1.0  0.366434570583273  0.5950612390860138  0.7317594640265305  1.0000
  C   C6        1.0  0.1912934066394948  0.962938444678301  0.6440954113625214  1.0000
  C   C7        1.0  0.19725673866651983  0.9962296004835274  0.9023305112262533  1.0000
  C   C8        1.0  0.768862700443752  0.47924484484371405  0.07145619043141473  1.0000
  C   C9        1.0  0.2299635957901025  0.5653249053654862  0.9152469537447212  1.0000
  C   C10       1.0  0.6535268846035744  0.4366254556813052  0.4005951875397966  1.0000
  I   I1        1.0  0.9916744459930764  0.7891183791330831  0.2387649734075552  1.0000
  I   I2        1.0  0.029903383463952826  0.5317967065145465  0.6849227641935212  1.0000
  O   O1        1.0  0.8065895903103991  0.05111505708461211  0.6684762431606341  1.0000
  O   O2        1.0  0.06768287608256185  0.03284058427196035  0.9562967751062236  1.0000
  O   O3        1.0  0.573417948702781  0.49094723530524154  0.47471646305530435  1.0000
  O   O4        1.0  0.07881411543646158  0.9739602272841328  0.5620664296399771  1.0000
  O   O5        1.0  0.613590828390965  0.8955901763801061  0.12742074048572177  1.0000
  O   O6        1.0  0.8513031793165662  0.5799604206559056  0.9977758115341054  1.0000
  O   O7        1.0  0.24523132692725944  0.3855538741114729  0.24105230638503697  1.0000
  O   O8        1.0  0.41560538385916757  0.4458037161030749  0.7573579238071242  1.0000
  O   O9        1.0  0.22007357591488158  0.44444933826593186  0.9841398133181862  1.0000
  O   O10       1.0  0.5178895749259691  0.969005237835701  0.4102874600635502  1.0000
data_image37
_chemical_formula_structural       Re2C10I2O10
_chemical_formula_sum              "Re2 C10 I2 O10"
_cell_length_a       6.7806348447214
_cell_length_b       6.7806348447214
_cell_length_c       10.993743
_cell_angle_alpha    90.0
_cell_angle_beta     90.0
_cell_angle_gamma    110.32517840843863

_space_group_name_H-M_alt    "P 1"
_space_group_IT_number       1

loop_
  _space_group_symop_operation_xyz
  'x, y, z'

loop_
  _atom_site_type_symbol
  _atom_site_label
  _atom_site_symmetry_multiplicity
  _atom_site_fract_x
  _atom_site_fract_y
  _atom_site_fract_z
  _atom_site_occupancy
  Re  Re1       1.0  0.35822662498627916  0.8621008661843189  0.8075268034752335  1.0000
  Re  Re2       1.0  0.67084570806543  0.39843647462818227  0.25802486185994467  1.0000
  C   C1        1.0  0.6790738737199196  0.10508424879099065  0.11143489959104744  1.0000
  C   C2        1.0  0.5975333685634934  0.9350471799251893  0.6970150208993704  1.0000
  C   C3        1.0  0.39887024581252334  0.3439161749805874  0.20662527598991273  1.0000
  C   C4        1.0  0.6745474838283851  0.13454415726711372  0.3425089290761618  1.0000
  C   C5        1.0  0.467642990775778  0.6493314789741831  0.7629528566416054  1.0000
  C   C6        1.0  0.2664784082214847  0.9930567882068414  0.6649817493652855  1.0000
  C   C7        1.0  0.12553803941561026  0.9419381205127968  0.8748944019701904  1.0000
  C   C8        1.0  0.6413775341904484  0.4350340982889914  0.07956935391294834  1.0000
  C   C9        1.0  0.2186818695958032  0.6531545781834381  0.9369635451103036  1.0000
  C   C10       1.0  0.5871486283349027  0.5232975846098329  0.3989576993336886  1.0000
  I   I1        1.0  0.04409123884773383  0.7480024220984237  0.2263567881505321  1.0000
  I   I2        1.0  0.031909686020503925  0.5268906716643427  0.6750705893211815  1.0000
  O   O1        1.0  0.7609273645633776  0.9794785871506125  0.6449696611857973  1.0000
  O   O2        1.0  0.9533953297638391  0.9264251073464501  0.8927722634550506  1.0000
  O   O3        1.0  0.507750003171998  0.5493801830435228  0.4840927135198306  1.0000
  O   O4        1.0  0.23256584374032419  0.03160610308882661  0.5650698905968445  1.0000
  O   O5        1.0  0.6797288342328632  0.9673555739501685  0.04391080282449136  1.0000
  O   O6        1.0  0.6405958755768619  0.4987076486881971  0.9777214979051668  1.0000
  O   O7        1.0  0.2478277242980093  0.39646628453753313  0.18201294765719614  1.0000
  O   O8        1.0  0.546057129096849  0.5181369332713499  0.7672206336528825  1.0000
  O   O9        1.0  0.12445157782233933  0.5293185240785995  0.005022899029357708  1.0000
  O   O10       1.0  0.6441005038489427  0.9761434703029309  0.39644044597755934  1.0000
data_image38
_chemical_formula_structural       Re2C10I2O10
_chemical_formula_sum              "Re2 C10 I2 O10"
_cell_length_a       6.7806348447214
_cell_length_b       6.7806348447214
_cell_length_c       10.993743
_cell_angle_alpha    90.0
_cell_angle_beta     90.0
_cell_angle_gamma    110.32517840843863

_space_group_name_H-M_alt    "P 1"
_space_group_IT_number       1

loop_
  _space_group_symop_operation_xyz
  'x, y, z'

loop_
  _atom_site_type_symbol
  _atom_site_label
  _atom_site_symmetry_multiplicity
  _atom_site_fract_x
  _atom_site_fract_y
  _atom_site_fract_z
  _atom_site_occupancy
  Re  Re1       1.0  0.4295074432485423  0.8581682681942285  0.7893011068888444  1.0000
  Re  Re2       1.0  0.5871515813839145  0.3608325335843501  0.24257812781022217  1.0000
  C   C1        1.0  0.6041459775686578  0.11460729988677198  0.15359624478475045  1.0000
  C   C2        1.0  0.7127615966345033  0.07369514340748268  0.7494973762365218  1.0000
  C   C3        1.0  0.28305221111328444  0.23873013762452078  0.23655437213700703  1.0000
  C   C4        1.0  0.7173726841391455  0.1768259994505471  0.3568623044278458  1.0000
  C   C5        1.0  0.496148487589267  0.6190048410917196  0.7308695461591228  1.0000
  C   C6        1.0  0.3547856421230242  0.038037106639150275  0.6721304600401491  1.0000
  C   C7        1.0  0.19554412567406176  0.9631189893575087  0.8932719625898887  1.0000
  C   C8        1.0  0.5987378256721465  0.5318332842960132  0.09310123305118581  1.0000
  C   C9        1.0  0.12730782471593546  0.6229627943861842  0.8793399436172404  1.0000
  C   C10       1.0  0.5749550390584223  0.49460353270877233  0.41766695215563415  1.0000
  I   I1        1.0  0.04635125400159063  0.7242126657475385  0.2729682452121981  1.0000
  I   I2        1.0  0.026981644201089505  0.5460020121108846  0.6307695021916234  1.0000
  O   O1        1.0  0.8451680655475191  0.0875444926722111  0.674750099185881  1.0000
  O   O2        1.0  0.051908171014231286  0.9868105944259515  0.9367362719061846  1.0000
  O   O3        1.0  0.6167305274606849  0.6104466767678631  0.4959456706802502  1.0000
  O   O4        1.0  0.2699071464131305  0.10497786292406652  0.6017610156087182  1.0000
  O   O5        1.0  0.6644937018091877  0.9968139539743063  0.11034686668873449  1.0000
  O   O6        1.0  0.645508144096721  0.6650925620107951  0.024351128358790945  1.0000
  O   O7        1.0  0.11082936386219172  0.23576308036164617  0.2063886590359256  1.0000
  O   O8        1.0  0.5010343846620442  0.48662240444893357  0.783329956420889  1.0000
  O   O9        1.0  0.06311217375845214  0.49056462191956024  0.9578031821816384  1.0000
  O   O10       1.0  0.7451930708856971  0.12692538990350705  0.4521190219804491  1.0000
data_image39
_chemical_formula_structural       Re2C10I2O10
_chemical_formula_sum              "Re2 C10 I2 O10"
_cell_length_a       6.7806348447214
_cell_length_b       6.7806348447214
_cell_length_c       10.993743
_cell_angle_alpha    90.0
_cell_angle_beta     90.0
_cell_angle_gamma    110.32517840843863

_space_group_name_H-M_alt    "P 1"
_space_group_IT_number       1

loop_
  _space_group_symop_operation_xyz
  'x, y, z'

loop_
  _atom_site_type_symbol
  _atom_site_label
  _atom_site_symmetry_multiplicity
  _atom_site_fract_x
  _atom_site_fract_y
  _atom_site_fract_z
  _atom_site_occupancy
  Re  Re1       1.0  0.39584313279167926  0.8585484872773742  0.7393967698718673  1.0000
  Re  Re2       1.0  0.5579289794346031  0.3385077047847049  0.26742717870911437  1.0000
  C   C1        1.0  0.6393001400288058  0.134145853377186  0.18175955299944704  1.0000
  C   C2        1.0  0.713265124191439  0.03816027103787972  0.7564039629010498  1.0000
  C   C3        1.0  0.26500319869308364  0.2203468705504007  0.2264429008447266  1.0000
  C   C4        1.0  0.7419002854374834  0.23276347407861167  0.35068051259420496  1.0000
  C   C5        1.0  0.5570309593446485  0.6656178176214163  0.756216940915658  1.0000
  C   C6        1.0  0.33554289278781196  0.042579332245818335  0.6111953211867377  1.0000
  C   C7        1.0  0.4126045957917155  0.059814466240595054  0.8809033335255514  1.0000
  C   C8        1.0  0.5843515120712511  0.4809716481135722  0.10462830608978181  1.0000
  C   C9        1.0  0.09395249665932148  0.6615808313495701  0.8882943402601182  1.0000
  C   C10       1.0  0.5185973937756592  0.6019163908221423  0.4093476786608394  1.0000
  I   I1        1.0  0.009697940045218074  0.6741373991952897  0.3652108623076875  1.0000
  I   I2        1.0  0.08371226136824661  0.5737171971389928  0.5923828570004814  1.0000
  O   O1        1.0  0.8814314576153743  0.013897308778528208  0.7314940719005998  1.0000
  O   O2        1.0  0.4252610602787339  0.20250687474639895  0.9412905719802246  1.0000
  O   O3        1.0  0.5825801908401816  0.7725862740136806  0.4479987670905077  1.0000
  O   O4        1.0  0.21609993775960662  0.09517357490083067  0.564525766073682  1.0000
  O   O5        1.0  0.6278576751118221  0.011154745170242508  0.105008909056023  1.0000
  O   O6        1.0  0.6135056313801625  0.592577679131713  0.018015147428896424  1.0000
  O   O7        1.0  0.11577948322489891  0.12001666325344096  0.17317757751364754  1.0000
  O   O8        1.0  0.6366563529931362  0.5720032441357111  0.8018553749862847  1.0000
  O   O9        1.0  0.9919041012414367  0.498040076851056  0.923201523320657  1.0000
  O   O10       1.0  0.84861598183515  0.14391187072688696  0.40797402087217777  1.0000
data_image40
_chemical_formula_structural       Re2C10I2O10
_chemical_formula_sum              "Re2 C10 I2 O10"
_cell_length_a       6.7806348447214
_cell_length_b       6.7806348447214
_cell_length_c       10.993743
_cell_angle_alpha    90.0
_cell_angle_beta     90.0
_cell_angle_gamma    110.32517840843863

_space_group_name_H-M_alt    "P 1"
_space_group_IT_number       1

loop_
  _space_group_symop_operation_xyz
  'x, y, z'

loop_
  _atom_site_type_symbol
  _atom_site_label
  _atom_site_symmetry_multiplicity
  _atom_site_fract_x
  _atom_site_fract_y
  _atom_site_fract_z
  _atom_site_occupancy
  Re  Re1       1.0  0.41473382206393267  0.8716960708385317  0.7486778818898471  1.0000
  Re  Re2       1.0  0.5665179775060998  0.3507856268706486  0.26925284744264233  1.0000
  C   C1        1.0  0.5226577298890156  0.06869116520961516  0.19378399926639958  1.0000
  C   C2        1.0  0.6941138367908097  0.07688266895450342  0.7700689320900346  1.0000
  C   C3        1.0  0.3161478903782704  0.24633863902714423  0.18350648150789983  1.0000
  C   C4        1.0  0.7822994743280023  0.1894329749346913  0.3771002319340327  1.0000
  C   C5        1.0  0.4588737592134431  0.6132282139779976  0.6596712179132985  1.0000
  C   C6        1.0  0.3247644309709678  0.01488909065036692  0.6015248736106058  1.0000
  C   C7        1.0  0.48047353841386076  0.17865163863875155  0.8332304266176945  1.0000
  C   C8        1.0  0.6524197186995402  0.5226544070463985  0.12475501509643586  1.0000
  C   C9        1.0  0.16468893550467306  0.7266325949350695  0.8560983817773993  1.0000
  C   C10       1.0  0.45123119255197225  0.5540068721464504  0.35707010204405976  1.0000
  I   I1        1.0  0.9411157686887887  0.6735448594272875  0.3909110150619049  1.0000
  I   I2        1.0  0.1098851024821248  0.507853226639664  0.5972108370152975  1.0000
  O   O1        1.0  0.8670984845192307  0.15029577768247282  0.7593619642963677  1.0000
  O   O2        1.0  0.5690197708139235  0.3400575300383495  0.8869829862228146  1.0000
  O   O3        1.0  0.4858139122779629  0.7482760585620718  0.38040094903023114  1.0000
  O   O4        1.0  0.3078716167662355  0.12161198407669338  0.5266188770178863  1.0000
  O   O5        1.0  0.5041396589320667  0.895077253618613  0.18538851171250323  1.0000
  O   O6        1.0  0.6891748891402294  0.6014926149885187  0.031107928401520782  1.0000
  O   O7        1.0  0.14703578736857098  0.17201419351636157  0.14093120129801898  1.0000
  O   O8        1.0  0.5488455984247949  0.4995678555783067  0.6685011918137936  1.0000
  O   O9        1.0  0.0061212404531493835  0.5893997686817484  0.8856153991728533  1.0000
  O   O10       1.0  0.8378701129876506  0.09157114416747707  0.43444218683738417  1.0000
data_image41
_chemical_formula_structural       Re2C10I2O10
_chemical_formula_sum              "Re2 C10 I2 O10"
_cell_length_a       6.7806348447214
_cell_length_b       6.7806348447214
_cell_length_c       10.993743
_cell_angle_alpha    90.0
_cell_angle_beta     90.0
_cell_angle_gamma    110.32517840843863

_space_group_name_H-M_alt    "P 1"
_space_group_IT_number       1

loop_
  _space_group_symop_operation_xyz
  'x, y, z'

loop_
  _atom_site_type_symbol
  _atom_site_label
  _atom_site_symmetry_multiplicity
  _atom_site_fract_x
  _atom_site_fract_y
  _atom_site_fract_z
  _atom_site_occupancy
  Re  Re1       1.0  0.46686847180888535  0.8770618867161668  0.7585677602564314  1.0000
  Re  Re2       1.0  0.5701719120898294  0.33226684220590835  0.2585986688424632  1.0000
  C   C1        1.0  0.508703510757832  0.05912801715283811  0.17449666414537973  1.0000
  C   C2        1.0  0.754112387843662  0.998702983890755  0.7046878639114831  1.0000
  C   C3        1.0  0.2813099680944001  0.3583987205803178  0.16961904552483018  1.0000
  C   C4        1.0  0.6737110046771904  0.22423928840568477  0.40501044388212476  1.0000
  C   C5        1.0  0.5357514357347142  0.6989669759173589  0.6346133863934028  1.0000
  C   C6        1.0  0.3161596173805076  0.9033984975965325  0.6148442013843708  1.0000
  C   C7        1.0  0.4581953373169281  0.13714837867308471  0.8777351483237616  1.0000
  C   C8        1.0  0.7890626930828525  0.5415672964869259  0.14658075054695702  1.0000
  C   C9        1.0  0.15099042346051916  0.7140069511585011  0.8458939871712393  1.0000
  C   C10       1.0  0.4552643929710877  0.5876402723471077  0.3237711196648327  1.0000
  I   I1        1.0  0.8792705895068905  0.7051964363184048  0.3739055408478324  1.0000
  I   I2        1.0  0.08773667132238727  0.4846852442669426  0.6354423901280007  1.0000
  O   O1        1.0  0.9051503979751971  0.023649697329753937  0.6459540594321328  1.0000
  O   O2        1.0  0.47259832459971474  0.28502629990515693  0.9335092730607173  1.0000
  O   O3        1.0  0.398853681348592  0.7336257975671987  0.32725313980486476  1.0000
  O   O4        1.0  0.2640869124942432  0.8825006021518419  0.5162460972065396  1.0000
  O   O5        1.0  0.42386376037729606  0.9368588858889798  0.09887128667648241  1.0000
  O   O6        1.0  0.9251037004456049  0.6602482631987049  0.0992779206817806  1.0000
  O   O7        1.0  0.13211054191682328  0.39550488228094244  0.16716981132564887  1.0000
  O   O8        1.0  0.6646789688612664  0.6312751463005462  0.6333856074186233  1.0000
  O   O9        1.0  0.01359229099784183  0.580570421549726  0.8826856340332417  1.0000
  O   O10       1.0  0.7177127930924612  0.12658109614546148  0.479678558356712  1.0000
data_image42
_chemical_formula_structural       Re2C10I2O10
_chemical_formula_sum              "Re2 C10 I2 O10"
_cell_length_a       6.7806348447214
_cell_length_b       6.7806348447214
_cell_length_c       10.993743
_cell_angle_alpha    90.0
_cell_angle_beta     90.0
_cell_angle_gamma    110.32517840843863

_space_group_name_H-M_alt    "P 1"
_space_group_IT_number       1

loop_
  _space_group_symop_operation_xyz
  'x, y, z'

loop_
  _atom_site_type_symbol
  _atom_site_label
  _atom_site_symmetry_multiplicity
  _atom_site_fract_x
  _atom_site_fract_y
  _atom_site_fract_z
  _atom_site_occupancy
  Re  Re1       1.0  0.4706046434057865  0.8712339925825334  0.7897985749141284  1.0000
  Re  Re2       1.0  0.5505284600086638  0.37389947150962427  0.24585042199672819  1.0000
  C   C1        1.0  0.5769542387121346  0.11122474660435566  0.18273426834720508  1.0000
  C   C2        1.0  0.8035783089441159  0.9801113238148562  0.7739241088971723  1.0000
  C   C3        1.0  0.2642595871044423  0.27588468345468825  0.13614457872230673  1.0000
  C   C4        1.0  0.570134153260476  0.19286658053663006  0.3816834610043091  1.0000
  C   C5        1.0  0.5625656873860947  0.544964373832133  0.7141961684581961  1.0000
  C   C6        1.0  0.3500589653619464  0.9160689830662927  0.6449614732271332  1.0000
  C   C7        1.0  0.39490335303818624  0.09777798518704883  0.8362775401594844  1.0000
  C   C8        1.0  0.7995524919551846  0.52368952466456  0.1319257500606653  1.0000
  C   C9        1.0  0.17150929987505284  0.712394647821156  0.8659724979125784  1.0000
  C   C10       1.0  0.4735122839368439  0.6115085311141621  0.31799117362583107  1.0000
  I   I1        1.0  0.9220858617398081  0.8068244205506461  0.364045783625148  1.0000
  I   I2        1.0  0.07372494235278992  0.4135809352073545  0.6132573084600645  1.0000
  O   O1        1.0  0.9698538932561724  0.9750886373108528  0.7555326596269247  1.0000
  O   O2        1.0  0.3842668129949711  0.267689407844925  0.8583985780676984  1.0000
  O   O3        1.0  0.4275086811646923  0.7587180818955042  0.30987412666909553  1.0000
  O   O4        1.0  0.22827427499915748  0.8702062959844672  0.5620040975029816  1.0000
  O   O5        1.0  0.5337034411739194  0.9780443205450751  0.11200142154390962  1.0000
  O   O6        1.0  0.9458377150887949  0.5244683894605052  0.08129217990835053  1.0000
  O   O7        1.0  0.11499232831652892  0.2676510383282272  0.07931391308921901  1.0000
  O   O8        1.0  0.5941040699223434  0.40019271465704487  0.6801204770000059  1.0000
  O   O9        1.0  0.9996128820857816  0.6129770796016789  0.861636422858189  1.0000
  O   O10       1.0  0.6340507877319495  0.12665120077185887  0.4597605923545388  1.0000
data_image43
_chemical_formula_structural       Re2C10I2O10
_chemical_formula_sum              "Re2 C10 I2 O10"
_cell_length_a       6.7806348447214
_cell_length_b       6.7806348447214
_cell_length_c       10.993743
_cell_angle_alpha    90.0
_cell_angle_beta     90.0
_cell_angle_gamma    110.32517840843863

_space_group_name_H-M_alt    "P 1"
_space_group_IT_number       1

loop_
  _space_group_symop_operation_xyz
  'x, y, z'

loop_
  _atom_site_type_symbol
  _atom_site_label
  _atom_site_symmetry_multiplicity
  _atom_site_fract_x
  _atom_site_fract_y
  _atom_site_fract_z
  _atom_site_occupancy
  Re  Re1       1.0  0.44430435223807657  0.8547790922513411  0.8256096763620167  1.0000
  Re  Re2       1.0  0.5675012365412629  0.37032687341504683  0.2010673086398173  1.0000
  C   C1        1.0  0.6808775180996219  0.16035928591585114  0.18117725236619436  1.0000
  C   C2        1.0  0.7539962890152637  0.9468269780767583  0.8351071540267822  1.0000
  C   C3        1.0  0.3017372631597026  0.14868923105985932  0.16310407652369394  1.0000
  C   C4        1.0  0.6272450447596858  0.3273277629132408  0.36515467849917826  1.0000
  C   C5        1.0  0.5325399829593529  0.6153038326618543  0.7754210539867818  1.0000
  C   C6        1.0  0.38129340164354547  0.9611220780386766  0.6758761745761434  1.0000
  C   C7        1.0  0.42349559484906485  0.11564475007299313  0.8977503605455724  1.0000
  C   C8        1.0  0.8655606277949891  0.5485933385628741  0.17478220440217257  1.0000
  C   C9        1.0  0.1468097939700557  0.6497050809427953  0.8476770158497365  1.0000
  C   C10       1.0  0.3729786001998813  0.5114764743657809  0.28298907364705767  1.0000
  I   I1        1.0  0.9454324931857571  0.875221962237873  0.34722819007623495  1.0000
  I   I2        1.0  0.014478381051092448  0.3522748199357867  0.5835377871116945  1.0000
  O   O1        1.0  0.9313901064062641  0.9737768837211288  0.8366973112904122  1.0000
  O   O2        1.0  0.4899235905240207  0.29201018302929205  0.9490906198441916  1.0000
  O   O3        1.0  0.3106553004144318  0.6420855577068374  0.32512268473720374  1.0000
  O   O4        1.0  0.31474646550766533  0.9681406933282638  0.5757248634929849  1.0000
  O   O5        1.0  0.677813505442713  0.009279865766617545  0.11749548557142295  1.0000
  O   O6        1.0  0.05012921196148143  0.6562981367656726  0.1369945638824461  1.0000
  O   O7        1.0  0.12618464196546073  0.02516007907017021  0.14090545961524564  1.0000
  O   O8        1.0  0.5714774690447761  0.6014311871620439  0.6761996152914479  1.0000
  O   O9        1.0  0.9859770037596436  0.5123374254714824  0.8580842282378891  1.0000
  O   O10       1.0  0.6782524483446836  0.27393428675750786  0.45857547179643166  1.0000
data_image44
_chemical_formula_structural       Re2C10I2O10
_chemical_formula_sum              "Re2 C10 I2 O10"
_cell_length_a       6.7806348447214
_cell_length_b       6.7806348447214
_cell_length_c       10.993743
_cell_angle_alpha    90.0
_cell_angle_beta     90.0
_cell_angle_gamma    110.32517840843863

_space_group_name_H-M_alt    "P 1"
_space_group_IT_number       1

loop_
  _space_group_symop_operation_xyz
  'x, y, z'

loop_
  _atom_site_type_symbol
  _atom_site_label
  _atom_site_symmetry_multiplicity
  _atom_site_fract_x
  _atom_site_fract_y
  _atom_site_fract_z
  _atom_site_occupancy
  Re  Re1       1.0  0.4208424184156783  0.8754243665135097  0.8654167051694679  1.0000
  Re  Re2       1.0  0.6033316567910739  0.40545370426886174  0.1818387040328074  1.0000
  C   C1        1.0  0.7473322121367831  0.21432535802219976  0.1521808789494674  1.0000
  C   C2        1.0  0.7426225400377836  0.9430367458994707  0.8282268588746161  1.0000
  C   C3        1.0  0.32270549223212686  0.23928740287248146  0.12381277764906472  1.0000
  C   C4        1.0  0.5572888542029076  0.30331971278731307  0.3550214544286585  1.0000
  C   C5        1.0  0.4986200405127208  0.6394837188277017  0.7778983523049632  1.0000
  C   C6        1.0  0.30769158066323965  0.9433550696305569  0.7145914537569433  1.0000
  C   C7        1.0  0.4437231567237727  0.15040016288707325  0.8879910113638069  1.0000
  C   C8        1.0  0.8958405905335692  0.5858271026312017  0.14607717568542772  1.0000
  C   C9        1.0  0.14989433536381405  0.6693829193154435  0.8722521248903802  1.0000
  C   C10       1.0  0.4090500239090225  0.5710722629600704  0.28967819160959607  1.0000
  I   I1        1.0  0.9294800861080884  0.8208378225699057  0.3670200051052249  1.0000
  I   I2        1.0  0.02959505440254273  0.26598732115825163  0.5464396946289853  1.0000
  O   O1        1.0  0.9178814261975928  0.9746247917748573  0.8118571256641336  1.0000
  O   O2        1.0  0.479113983392478  0.32001725243107493  0.8993849834551535  1.0000
  O   O3        1.0  0.32334695021674725  0.6904846066614752  0.31184733342492466  1.0000
  O   O4        1.0  0.22408082096033458  0.005157368597146217  0.6351633741802803  1.0000
  O   O5        1.0  0.7713484730498769  0.06663044775044935  0.10880646201051768  1.0000
  O   O6        1.0  0.056126776923936104  0.7054218379246382  0.11124221254581489  1.0000
  O   O7        1.0  0.149241111301233  0.09888518805480184  0.10812740001854182  1.0000
  O   O8        1.0  0.5585827657836879  0.5976349920259137  0.6910327140584597  1.0000
  O   O9        1.0  0.04284739078714917  0.49219583353509155  0.8744724258308059  1.0000
  O   O10       1.0  0.48123955100828586  0.267718097299472  0.449925780461804  1.0000
data_image45
_chemical_formula_structural       Re2C10I2O10
_chemical_formula_sum              "Re2 C10 I2 O10"
_cell_length_a       6.7806348447214
_cell_length_b       6.7806348447214
_cell_length_c       10.993743
_cell_angle_alpha    90.0
_cell_angle_beta     90.0
_cell_angle_gamma    110.32517840843863

_space_group_name_H-M_alt    "P 1"
_space_group_IT_number       1

loop_
  _space_group_symop_operation_xyz
  'x, y, z'

loop_
  _atom_site_type_symbol
  _atom_site_label
  _atom_site_symmetry_multiplicity
  _atom_site_fract_x
  _atom_site_fract_y
  _atom_site_fract_z
  _atom_site_occupancy
  Re  Re1       1.0  0.44218278156566804  0.8649636421319813  0.8565475458656416  1.0000
  Re  Re2       1.0  0.602571504799711  0.42603185580609043  0.20096433638534128  1.0000
  C   C1        1.0  0.6074962162469931  0.15182814035582215  0.16114607314087792  1.0000
  C   C2        1.0  0.6980110942663409  0.851638922319983  0.8840417998983613  1.0000
  C   C3        1.0  0.2909497495319261  0.3169486258874861  0.15644933241637102  1.0000
  C   C4        1.0  0.5551102741459955  0.2577298912366457  0.352777118647222  1.0000
  C   C5        1.0  0.4532665819606645  0.6683060386756613  0.7202669985912309  1.0000
  C   C6        1.0  0.35286874410182256  0.9087279587457093  0.6876550843779957  1.0000
  C   C7        1.0  0.4360641879122966  0.15667061191028897  0.8659783526045489  1.0000
  C   C8        1.0  0.9028537457189493  0.5352580317092998  0.1587139675362081  1.0000
  C   C9        1.0  0.19538659125205501  0.5863420306809074  0.8431291824061626  1.0000
  C   C10       1.0  0.4451359711919115  0.603542234466355  0.2988624830025964  1.0000
  I   I1        1.0  0.9317804832395353  0.8240973881293803  0.3878997257208411  1.0000
  I   I2        1.0  0.020410186152005627  0.302754186386921  0.5183442384777961  1.0000
  O   O1        1.0  0.8750654963296184  0.8684155368433171  0.900831708724025  1.0000
  O   O2        1.0  0.44891324499164087  0.332657832714752  0.860571544463031  1.0000
  O   O3        1.0  0.4089892002879777  0.7552126846457108  0.32126499106916134  1.0000
  O   O4        1.0  0.3172119109858918  0.9717412790788068  0.6024609703852877  1.0000
  O   O5        1.0  0.6545871622782453  0.017915296096564726  0.1281842819571344  1.0000
  O   O6        1.0  0.07486452559420904  0.5596085982253474  0.1446828214137568  1.0000
  O   O7        1.0  0.12571411769750157  0.18683053768990066  0.12944830755210296  1.0000
  O   O8        1.0  0.4449744494345145  0.6150707882213343  0.622073295007945  1.0000
  O   O9        1.0  0.04876547731693585  0.44514091560691227  0.8061989790298121  1.0000
  O   O10       1.0  0.5167693232565369  0.1724833572530613  0.4360139361358748  1.0000
data_image46
_chemical_formula_structural       Re2C10I2O10
_chemical_formula_sum              "Re2 C10 I2 O10"
_cell_length_a       6.7806348447214
_cell_length_b       6.7806348447214
_cell_length_c       10.993743
_cell_angle_alpha    90.0
_cell_angle_beta     90.0
_cell_angle_gamma    110.32517840843863

_space_group_name_H-M_alt    "P 1"
_space_group_IT_number       1

loop_
  _space_group_symop_operation_xyz
  'x, y, z'

loop_
  _atom_site_type_symbol
  _atom_site_label
  _atom_site_symmetry_multiplicity
  _atom_site_fract_x
  _atom_site_fract_y
  _atom_site_fract_z
  _atom_site_occupancy
  Re  Re1       1.0  0.4524694760180856  0.8306251358715129  0.838280679398387  1.0000
  Re  Re2       1.0  0.6219962957001582  0.4810322796963583  0.20527313163264718  1.0000
  C   C1        1.0  0.5371754578590561  0.14951653722396996  0.17735032686249344  1.0000
  C   C2        1.0  0.7343679285922816  0.8163047540452535  0.8969630998888481  1.0000
  C   C3        1.0  0.2624687409918313  0.3466706689972124  0.16983415597075097  1.0000
  C   C4        1.0  0.552430707046778  0.2963697823600731  0.36366493670795236  1.0000
  C   C5        1.0  0.5547404170650712  0.7215773375137293  0.6726814138367923  1.0000
  C   C6        1.0  0.266693373401398  0.9627959258456424  0.736180311415024  1.0000
  C   C7        1.0  0.40680714307589594  0.1013394952646216  0.8984950512409487  1.0000
  C   C8        1.0  0.8907780242120896  0.654856093273332  0.1278592169381247  1.0000
  C   C9        1.0  0.18584259523176738  0.5691961528500254  0.842611093737241  1.0000
  C   C10       1.0  0.43422822241984826  0.5728701991257394  0.30831365140936534  1.0000
  I   I1        1.0  0.9339752734709319  0.8185397879585862  0.3927467965609975  1.0000
  I   I2        1.0  0.029613576145971487  0.2831613467773667  0.5026524311010779  1.0000
  O   O1        1.0  0.9002486477217786  0.7912492691489443  0.9062008757242564  1.0000
  O   O2        1.0  0.3727495794393685  0.21674605221419863  0.9713419205454741  1.0000
  O   O3        1.0  0.33646843187848163  0.686095319414582  0.3413890196147344  1.0000
  O   O4        1.0  0.14773587731005433  0.9756611250305617  0.6654123928836216  1.0000
  O   O5        1.0  0.4774706197122867  0.98187277074266  0.15220703951312103  1.0000
  O   O6        1.0  0.046568048485835775  0.6762888479425553  0.07474811092346985  1.0000
  O   O7        1.0  0.1483273032055328  0.19305593337476706  0.17471613271059933  1.0000
  O   O8        1.0  0.6646055890422653  0.6626208778947715  0.6147933393485785  1.0000
  O   O9        1.0  0.027146727034717447  0.41360489575649234  0.8271047900167787  1.0000
  O   O10       1.0  0.4442262420197597  0.17685208125943142  0.43190095395343403  1.0000
data_image47
_chemical_formula_structural       Re2C10I2O10
_chemical_formula_sum              "Re2 C10 I2 O10"
_cell_length_a       6.7806348447214
_cell_length_b       6.7806348447214
_cell_length_c       10.993743
_cell_angle_alpha    90.0
_cell_angle_beta     90.0
_cell_angle_gamma    110.32517840843863

_space_group_name_H-M_alt    "P 1"
_space_group_IT_number       1

loop_
  _space_group_symop_operation_xyz
  'x, y, z'

loop_
  _atom_site_type_symbol
  _atom_site_label
  _atom_site_symmetry_multiplicity
  _atom_site_fract_x
  _atom_site_fract_y
  _atom_site_fract_z
  _atom_site_occupancy
  Re  Re1       1.0  0.4484231253664494  0.7795913371689864  0.8121092401045589  1.0000
  Re  Re2       1.0  0.6280518469800647  0.5224949367358093  0.23437010318864165  1.0000
  C   C1        1.0  0.6694157979575794  0.2546877545550932  0.21406871889014129  1.0000
  C   C2        1.0  0.7442549985321057  0.8688488250738253  0.8595010504274593  1.0000
  C   C3        1.0  0.38371437217433635  0.5105135945219743  0.12881169787490748  1.0000
  C   C4        1.0  0.5867841224128472  0.3984847606188971  0.41112524631627917  1.0000
  C   C5        1.0  0.4882893702307949  0.6784029242953273  0.6463824406824644  1.0000
  C   C6        1.0  0.2940010084370936  0.9734706671791535  0.7567844173589131  1.0000
  C   C7        1.0  0.42456337604269834  0.007381292714994991  0.9289489363421852  1.0000
  C   C8        1.0  0.8937741584075696  0.719149937290799  0.14597146219454457  1.0000
  C   C9        1.0  0.2385872169916876  0.544348325361576  0.8488015515377954  1.0000
  C   C10       1.0  0.430622298399714  0.652172042059278  0.3067836967853329  1.0000
  I   I1        1.0  0.8691790774757082  0.7500806530979856  0.3746785784053357  1.0000
  I   I2        1.0  0.9971063669859259  0.2337027394753629  0.5032405951901957  1.0000
  O   O1        1.0  0.9077099341993085  0.9294375967139756  0.905910093142682  1.0000
  O   O2        1.0  0.3800196723316922  0.12895780587640715  0.9854945031873746  1.0000
  O   O3        1.0  0.37580442745927245  0.7868190687293113  0.3312451738692276  1.0000
  O   O4        1.0  0.2210291816182127  0.04443306425140192  0.6829105638290632  1.0000
  O   O5        1.0  0.6869054079818278  0.09414515317634975  0.20210032921012844  1.0000
  O   O6        1.0  0.04957274033060889  0.763911596985667  0.08320412779257617  1.0000
  O   O7        1.0  0.22875637555973316  0.3773728982689836  0.09653489765061  1.0000
  O   O8        1.0  0.5401359361546074  0.7010887267859074  0.5489518809588053  1.0000
  O   O9        1.0  0.09892907491545606  0.3919319397061177  0.8830370244122463  1.0000
  O   O10       1.0  0.5689867506897257  0.30317987594718704  0.49349196863304523  1.0000
data_image48
_chemical_formula_structural       Re2C10I2O10
_chemical_formula_sum              "Re2 C10 I2 O10"
_cell_length_a       6.7806348447214
_cell_length_b       6.7806348447214
_cell_length_c       10.993743
_cell_angle_alpha    90.0
_cell_angle_beta     90.0
_cell_angle_gamma    110.32517840843863

_space_group_name_H-M_alt    "P 1"
_space_group_IT_number       1

loop_
  _space_group_symop_operation_xyz
  'x, y, z'

loop_
  _atom_site_type_symbol
  _atom_site_label
  _atom_site_symmetry_multiplicity
  _atom_site_fract_x
  _atom_site_fract_y
  _atom_site_fract_z
  _atom_site_occupancy
  Re  Re1       1.0  0.4229496673686592  0.7448250711774583  0.8252076134850315  1.0000
  Re  Re2       1.0  0.5951592104716907  0.5044226608954149  0.23756194232903555  1.0000
  C   C1        1.0  0.7858761734108212  0.3771548474522495  0.19073974191877757  1.0000
  C   C2        1.0  0.7717005892943757  0.8263968231652644  0.7973983587200076  1.0000
  C   C3        1.0  0.33945206661923827  0.40689062159813  0.12936323984609469  1.0000
  C   C4        1.0  0.6221949721780444  0.4402638938918117  0.4042486336030171  1.0000
  C   C5        1.0  0.39956359985219336  0.6326022441947456  0.6541795109983535  1.0000
  C   C6        1.0  0.3602504817445877  0.9241619932668023  0.7123938853557362  1.0000
  C   C7        1.0  0.565960302932448  0.054544053143124716  0.9327443792991341  1.0000
  C   C8        1.0  0.8675689729600142  0.7351203431081438  0.14947957889966626  1.0000
  C   C9        1.0  0.16080096329007287  0.5469333443736651  0.8497753530134715  1.0000
  C   C10       1.0  0.49644979642167003  0.7502077144710011  0.2424797315416158  1.0000
  I   I1        1.0  0.9422616348880466  0.8502938449865297  0.38955640149337784  1.0000
  I   I2        1.0  0.9702405664005881  0.16081775892480865  0.531646487041365  1.0000
  O   O1        1.0  0.914152076492819  0.8842354474629993  0.7358542235693131  1.0000
  O   O2        1.0  0.5990188920817032  0.18635221868606466  0.00022458924982893258  1.0000
  O   O3        1.0  0.3976489838821283  0.8650177250040383  0.22673141858387558  1.0000
  O   O4        1.0  0.34171752420031104  0.0641494909039646  0.6510553433035949  1.0000
  O   O5        1.0  0.8759516191130657  0.26944309835344815  0.21467007822547676  1.0000
  O   O6        1.0  0.9056097307244498  0.8129730327115033  0.05816126637864357  1.0000
  O   O7        1.0  0.18038528637654871  0.3486028712077399  0.07283343718812138  1.0000
  O   O8        1.0  0.45062686697791565  0.6915237752198312  0.5599614847609906  1.0000
  O   O9        1.0  0.9821322147867082  0.43159181768617805  0.8218283284488824  1.0000
  O   O10       1.0  0.5627421994840643  0.3160823015310771  0.478134070093795  1.0000
data_image49
_chemical_formula_structural       Re2C10I2O10
_chemical_formula_sum              "Re2 C10 I2 O10"
_cell_length_a       6.7806348447214
_cell_length_b       6.7806348447214
_cell_length_c       10.993743
_cell_angle_alpha    90.0
_cell_angle_beta     90.0
_cell_angle_gamma    110.32517840843863

_space_group_name_H-M_alt    "P 1"
_space_group_IT_number       1

loop_
  _space_group_symop_operation_xyz
  'x, y, z'

loop_
  _atom_site_type_symbol
  _atom_site_label
  _atom_site_symmetry_multiplicity
  _atom_site_fract_x
  _atom_site_fract_y
  _atom_site_fract_z
  _atom_site_occupancy
  Re  Re1       1.0  0.4514712154341484  0.7330517029840609  0.8239426603975555  1.0000
  Re  Re2       1.0  0.5893308905490213  0.5099241916339897  0.22825136876416172  1.0000
  C   C1        1.0  0.763353195610204  0.30317558708062986  0.2133437833378707  1.0000
  C   C2        1.0  0.7554666273385977  0.7388655813776169  0.7313108652611645  1.0000
  C   C3        1.0  0.4289302352699281  0.32301787825239364  0.10172671656116893  1.0000
  C   C4        1.0  0.5880372057950158  0.394193726017444  0.3882033716330429  1.0000
  C   C5        1.0  0.38703771389738617  0.5527661584579672  0.6886148795306382  1.0000
  C   C6        1.0  0.39045454999481427  0.9599546966890319  0.7302530949439786  1.0000
  C   C7        1.0  0.5612963761463154  0.003374301356720011  0.940046693539281  1.0000
  C   C8        1.0  0.8542253667230324  0.7454932768584233  0.11003653432447566  1.0000
  C   C9        1.0  0.18364086229066987  0.5729721290749688  0.8666015847496484  1.0000
  C   C10       1.0  0.4802168650067391  0.7559065083706988  0.24686487995751852  1.0000
  I   I1        1.0  0.004277293679940393  0.9345192129600134  0.3900355818906974  1.0000
  I   I2        1.0  0.888859624526253  0.20830200957797573  0.5527083652282211  1.0000
  O   O1        1.0  0.8767649474521928  0.7038421862176001  0.6740739347531227  1.0000
  O   O2        1.0  0.6138057791367231  0.1012559411520999  0.02580102394973416  1.0000
  O   O3        1.0  0.4019227322480018  0.8831294990535548  0.21654665993558925  1.0000
  O   O4        1.0  0.29257019545771656  0.050879319244744536  0.6911726289399847  1.0000
  O   O5        1.0  0.8071710746532236  0.15660441737512598  0.23461775677386512  1.0000
  O   O6        1.0  0.912942933282818  0.8378502074273672  0.007487070438093681  1.0000
  O   O7        1.0  0.2842915575553446  0.18333579850981307  0.05188429881967874  1.0000
  O   O8        1.0  0.3869358507053964  0.5390046798223646  0.5797762205143816  1.0000
  O   O9        1.0  0.007357949229356471  0.46165291635863553  0.8789049088969487  1.0000
  O   O10       1.0  0.5063834172403741  0.2361574756256786  0.4460664523847739  1.0000
data_image50
_chemical_formula_structural       Re2C10I2O10
_chemical_formula_sum              "Re2 C10 I2 O10"
_cell_length_a       6.7806348447214
_cell_length_b       6.7806348447214
_cell_length_c       10.993743
_cell_angle_alpha    90.0
_cell_angle_beta     90.0
_cell_angle_gamma    110.32517840843863

_space_group_name_H-M_alt    "P 1"
_space_group_IT_number       1

loop_
  _space_group_symop_operation_xyz
  'x, y, z'

loop_
  _atom_site_type_symbol
  _atom_site_label
  _atom_site_symmetry_multiplicity
  _atom_site_fract_x
  _atom_site_fract_y
  _atom_site_fract_z
  _atom_site_occupancy
  Re  Re1       1.0  0.4943994602612064  0.7160866109952329  0.8358807354799259  1.0000
  Re  Re2       1.0  0.5995798594306979  0.5210203734856902  0.20356806211339287  1.0000
  C   C1        1.0  0.8497020342713554  0.4280816669725269  0.20801545232079888  1.0000
  C   C2        1.0  0.7447836562324883  0.6976468900357011  0.7601529656176215  1.0000
  C   C3        1.0  0.3705728552590676  0.3468690990568283  0.11704604721194174  1.0000
  C   C4        1.0  0.48772497812800697  0.3738510215480071  0.3457967917316924  1.0000
  C   C5        1.0  0.3651810255732324  0.5919122641197754  0.6914466473090555  1.0000
  C   C6        1.0  0.34581360449611837  0.9242090729821101  0.7551018175956851  1.0000
  C   C7        1.0  0.6696652023366723  0.9911878468725244  0.9145529878684451  1.0000
  C   C8        1.0  0.8282611618626967  0.722515769709916  0.11128945712114663  1.0000
  C   C9        1.0  0.18754068952876315  0.5193428012474661  0.9055503863287806  1.0000
  C   C10       1.0  0.4337208575840716  0.6811485114387361  0.2030824857970459  1.0000
  I   I1        1.0  0.9718085254046909  0.9269306570601982  0.41955394843819854  1.0000
  I   I2        1.0  0.8554210406750612  0.20387390976104725  0.5381927681361274  1.0000
  O   O1        1.0  0.8801387228945584  0.6653804700775634  0.7040358878160635  1.0000
  O   O2        1.0  0.7102929830656377  0.13213861633345747  0.970036383985442  1.0000
  O   O3        1.0  0.370519768695801  0.8101562705954681  0.1578134687949138  1.0000
  O   O4        1.0  0.29459422955429  0.06481419354787743  0.7464941971946264  1.0000
  O   O5        1.0  0.9238155613684574  0.3069295891663548  0.19341375873706465  1.0000
  O   O6        1.0  0.8890420416982501  0.8636737397217197  0.03167804724413418  1.0000
  O   O7        1.0  0.19817657228205332  0.21725566694679224  0.0908988605294264  1.0000
  O   O8        1.0  0.403152630234934  0.6193412357528162  0.5810541653956143  1.0000
  O   O9        1.0  0.03223577063776758  0.4638268010632412  0.9521289483663434  1.0000
  O   O10       1.0  0.38060502706213784  0.23187345412384164  0.40863136759226093  1.0000
data_image51
_chemical_formula_structural       Re2C10I2O10
_chemical_formula_sum              "Re2 C10 I2 O10"
_cell_length_a       6.7806348447214
_cell_length_b       6.7806348447214
_cell_length_c       10.993743
_cell_angle_alpha    90.0
_cell_angle_beta     90.0
_cell_angle_gamma    110.32517840843863

_space_group_name_H-M_alt    "P 1"
_space_group_IT_number       1

loop_
  _space_group_symop_operation_xyz
  'x, y, z'

loop_
  _atom_site_type_symbol
  _atom_site_label
  _atom_site_symmetry_multiplicity
  _atom_site_fract_x
  _atom_site_fract_y
  _atom_site_fract_z
  _atom_site_occupancy
  Re  Re1       1.0  0.5222954903216428  0.7079263539808515  0.8410198162948539  1.0000
  Re  Re2       1.0  0.5618379682551546  0.559229430716586  0.1982478016650438  1.0000
  C   C1        1.0  0.8041136828711564  0.4476530420174516  0.2322022522390494  1.0000
  C   C2        1.0  0.7838092884775625  0.7018460725948172  0.8095501809436588  1.0000
  C   C3        1.0  0.4911448251775698  0.30253952369214765  0.10452937821195112  1.0000
  C   C4        1.0  0.49072977869324863  0.4002588829564341  0.3428171537393555  1.0000
  C   C5        1.0  0.41636926285128406  0.6314286620404047  0.6807510643510178  1.0000
  C   C6        1.0  0.3530800949381994  0.8812571697230586  0.8040969966926259  1.0000
  C   C7        1.0  0.716977062663753  0.04508974127498333  0.8790126297626105  1.0000
  C   C8        1.0  0.8315437122012164  0.7872489364951857  0.07782410246255776  1.0000
  C   C9        1.0  0.25522630708631566  0.5171666065271752  0.9334004866038494  1.0000
  C   C10       1.0  0.3698456498478533  0.7252584426882576  0.19309972327276065  1.0000
  I   I1        1.0  0.8930741374779709  0.8556520825596297  0.4099966076980081  1.0000
  I   I2        1.0  0.8825185500854354  0.20114454910696433  0.5320780799535612  1.0000
  O   O1        1.0  0.9339956862454128  0.6554750937312446  0.7883647099249709  1.0000
  O   O2        1.0  0.7471569285920392  0.21749637735023009  0.912259554212472  1.0000
  O   O3        1.0  0.2666402568502038  0.8310821732340459  0.178455850906417  1.0000
  O   O4        1.0  0.27606625286995473  0.00385340953858071  0.7878837630321541  1.0000
  O   O5        1.0  0.8790921007803092  0.3290711935447699  0.22452732309132326  1.0000
  O   O6        1.0  0.9793708491994807  0.8796914796108074  0.02386940219386941  1.0000
  O   O7        1.0  0.4311288820364038  0.16038579940868383  0.03543564481290754  1.0000
  O   O8        1.0  0.41868245637503376  0.6437822986874374  0.5704937149782219  1.0000
  O   O9        1.0  0.0983427259225928  0.4912947767810786  0.9810991302979001  1.0000
  O   O10       1.0  0.40975814704140456  0.27886875829521124  0.42386394079849354  1.0000
data_image52
_chemical_formula_structural       Re2C10I2O10
_chemical_formula_sum              "Re2 C10 I2 O10"
_cell_length_a       6.7806348447214
_cell_length_b       6.7806348447214
_cell_length_c       10.993743
_cell_angle_alpha    90.0
_cell_angle_beta     90.0
_cell_angle_gamma    110.32517840843863

_space_group_name_H-M_alt    "P 1"
_space_group_IT_number       1

loop_
  _space_group_symop_operation_xyz
  'x, y, z'

loop_
  _atom_site_type_symbol
  _atom_site_label
  _atom_site_symmetry_multiplicity
  _atom_site_fract_x
  _atom_site_fract_y
  _atom_site_fract_z
  _atom_site_occupancy
  Re  Re1       1.0  0.5116719325326602  0.724286825343709  0.8392023150909006  1.0000
  Re  Re2       1.0  0.5504165559407606  0.5875618148639868  0.19082979585043758  1.0000
  C   C1        1.0  0.8013283723268039  0.492427833178561  0.21761752482439556  1.0000
  C   C2        1.0  0.7859618982926185  0.651865955074803  0.830813214935163  1.0000
  C   C3        1.0  0.5297916997804788  0.38341245263997964  0.0741707002364033  1.0000
  C   C4        1.0  0.4931520852917114  0.41836542719353126  0.33979231290688383  1.0000
  C   C5        1.0  0.4169168613091865  0.6936470880950426  0.6521281793063525  1.0000
  C   C6        1.0  0.44066436088670097  0.9828106727906573  0.820209235762554  1.0000
  C   C7        1.0  0.8080379103093915  0.9404543207180843  0.7962139918662554  1.0000
  C   C8        1.0  0.8389763709856469  0.8095919704493771  0.12495768766494611  1.0000
  C   C9        1.0  0.26656273153541493  0.5573224412053663  0.91483486511244  1.0000
  C   C10       1.0  0.4407101543676939  0.8114089814911014  0.2811549112653929  1.0000
  I   I1        1.0  0.8607653462288177  0.8195531499179138  0.4039800736815858  1.0000
  I   I2        1.0  0.8547876709316871  0.1387887256991407  0.5358240660095992  1.0000
  O   O1        1.0  0.8894893605986254  0.5442502332393206  0.8135569473772508  1.0000
  O   O2        1.0  0.9580380095579006  0.08237185694413429  0.8114776417722844  1.0000
  O   O3        1.0  0.3938547869613051  0.9299783924863045  0.3488311515634271  1.0000
  O   O4        1.0  0.3476629844990105  0.09335224428259892  0.7955127505413832  1.0000
  O   O5        1.0  0.8908181689522991  0.3599695426425138  0.2495340154355399  1.0000
  O   O6        1.0  0.9947661555560667  0.8495865095189452  0.07656662203221615  1.0000
  O   O7        1.0  0.5106094400755502  0.2749145314083606  0.9940232789166005  1.0000
  O   O8        1.0  0.3252987531281426  0.6148323154204566  0.5598572906484057  1.0000
  O   O9        1.0  0.1294276777206674  0.4559910939359009  0.9748216254947378  1.0000
  O   O10       1.0  0.49698807232308906  0.3117407090244733  0.4239901618770872  1.0000
data_image53
_chemical_formula_structural       Re2C10I2O10
_chemical_formula_sum              "Re2 C10 I2 O10"
_cell_length_a       6.7806348447214
_cell_length_b       6.7806348447214
_cell_length_c       10.993743
_cell_angle_alpha    90.0
_cell_angle_beta     90.0
_cell_angle_gamma    110.32517840843863

_space_group_name_H-M_alt    "P 1"
_space_group_IT_number       1

loop_
  _space_group_symop_operation_xyz
  'x, y, z'

loop_
  _atom_site_type_symbol
  _atom_site_label
  _atom_site_symmetry_multiplicity
  _atom_site_fract_x
  _atom_site_fract_y
  _atom_site_fract_z
  _atom_site_occupancy
  Re  Re1       1.0  0.489985619382253  0.7854769287891099  0.8269224203619655  1.0000
  Re  Re2       1.0  0.625541847764609  0.5604779469022401  0.18413512737945484  1.0000
  C   C1        1.0  0.8730233374330545  0.5106738999565492  0.1929203657445088  1.0000
  C   C2        1.0  0.6355966246383827  0.5594029527147928  0.8090031210027255  1.0000
  C   C3        1.0  0.5229296971475482  0.3293404915579533  0.044904525678778784  1.0000
  C   C4        1.0  0.4310725680611438  0.40783637449032234  0.3200167363751452  1.0000
  C   C5        1.0  0.3433176329277752  0.6995395642164883  0.6818346256967891  1.0000
  C   C6        1.0  0.455984294119755  0.030123482901839305  0.7137554224468917  1.0000
  C   C7        1.0  0.8096096133722044  0.8971375895733263  0.7923959784244683  1.0000
  C   C8        1.0  0.8043245952557037  0.811887389573226  0.09793892984042762  1.0000
  C   C9        1.0  0.23811663207631872  0.5286210369856218  0.8989549441922868  1.0000
  C   C10       1.0  0.5111326513760184  0.7970963390885115  0.2606747284168342  1.0000
  I   I1        1.0  0.8212707210313424  0.7783600365376927  0.4581990212759627  1.0000
  I   I2        1.0  0.8919570122758694  0.16712073562339103  0.5589629879883494  1.0000
  O   O1        1.0  0.6606851120488152  0.41290113089890323  0.7790812253762947  1.0000
  O   O2        1.0  0.9820891448782425  0.9229053461388651  0.7960271061275965  1.0000
  O   O3        1.0  0.40857600579358133  0.8469620205454147  0.32796874165773227  1.0000
  O   O4        1.0  0.3453152544861391  0.12272908347764933  0.7124914284050057  1.0000
  O   O5        1.0  0.04021308165183224  0.5129260210134357  0.2375532411555381  1.0000
  O   O6        1.0  0.9376163631302789  0.9528533962351309  0.07283335071998619  1.0000
  O   O7        1.0  0.4507622351446038  0.19859766786849975  0.9835141074983886  1.0000
  O   O8        1.0  0.23732395613160362  0.6453726989180907  0.5936022298092382  1.0000
  O   O9        1.0  0.06495606825162303  0.4295767954341296  0.9230254958049159  1.0000
  O   O10       1.0  0.35999511040732446  0.3087652416497567  0.401384674719246  1.0000
data_image54
_chemical_formula_structural       Re2C10I2O10
_chemical_formula_sum              "Re2 C10 I2 O10"
_cell_length_a       6.7806348447214
_cell_length_b       6.7806348447214
_cell_length_c       10.993743
_cell_angle_alpha    90.0
_cell_angle_beta     90.0
_cell_angle_gamma    110.32517840843863

_space_group_name_H-M_alt    "P 1"
_space_group_IT_number       1

loop_
  _space_group_symop_operation_xyz
  'x, y, z'

loop_
  _atom_site_type_symbol
  _atom_site_label
  _atom_site_symmetry_multiplicity
  _atom_site_fract_x
  _atom_site_fract_y
  _atom_site_fract_z
  _atom_site_occupancy
  Re  Re1       1.0  0.4753867748609395  0.7674492297069962  0.7831806691606765  1.0000
  Re  Re2       1.0  0.661474324096518  0.5747947624156455  0.20706012703679721  1.0000
  C   C1        1.0  0.9031712564289436  0.48282259955137996  0.22839697489158436  1.0000
  C   C2        1.0  0.5294830292062087  0.48495310407952097  0.8255291884807496  1.0000
  C   C3        1.0  0.4919047762548407  0.3310536575517735  0.10088748378587985  1.0000
  C   C4        1.0  0.4203898849098989  0.3455083906502814  0.32213206717230175  1.0000
  C   C5        1.0  0.40697193093760986  0.6394580578378273  0.5998282018352139  1.0000
  C   C6        1.0  0.41661322919585037  0.9883193324235752  0.6932890703039567  1.0000
  C   C7        1.0  0.785999307746398  0.8740101407621913  0.8338399962116524  1.0000
  C   C8        1.0  0.783601144073842  0.8236793110328646  0.09894259504877286  1.0000
  C   C9        1.0  0.21987135469717242  0.6323628809855169  0.8614881295224237  1.0000
  C   C10       1.0  0.547038089776298  0.8031704232293859  0.21333444634655202  1.0000
  I   I1        1.0  0.8113132914015518  0.7904389783269231  0.4998598076699432  1.0000
  I   I2        1.0  0.8839144260730686  0.19201042742480312  0.5849247888323876  1.0000
  O   O1        1.0  0.5869528060984021  0.35522442682073996  0.7881720513735295  1.0000
  O   O2        1.0  0.9516568321157006  0.8935020234760799  0.8272824336381779  1.0000
  O   O3        1.0  0.47839102880811196  0.9304975982983843  0.21590615424232648  1.0000
  O   O4        1.0  0.3109144027568387  0.06909030389485316  0.6358642476749973  1.0000
  O   O5        1.0  0.07437470401172486  0.4744066224459851  0.23345996506531216  1.0000
  O   O6        1.0  0.8759095044183162  0.985511721506987  0.053528551270587074  1.0000
  O   O7        1.0  0.44099235308768964  0.2064260146785805  0.02629190527552328  1.0000
  O   O8        1.0  0.36501835443869557  0.6417465876951216  0.49653214270340607  1.0000
  O   O9        1.0  0.08194678465519074  0.483596278023278  0.8956492684284965  1.0000
  O   O10       1.0  0.3154367496195635  0.193801371896859  0.38772681351635857  1.0000
data_image55
_chemical_formula_structural       Re2C10I2O10
_chemical_formula_sum              "Re2 C10 I2 O10"
_cell_length_a       6.7806348447214
_cell_length_b       6.7806348447214
_cell_length_c       10.993743
_cell_angle_alpha    90.0
_cell_angle_beta     90.0
_cell_angle_gamma    110.32517840843863

_space_group_name_H-M_alt    "P 1"
_space_group_IT_number       1

loop_
  _space_group_symop_operation_xyz
  'x, y, z'

loop_
  _atom_site_type_symbol
  _atom_site_label
  _atom_site_symmetry_multiplicity
  _atom_site_fract_x
  _atom_site_fract_y
  _atom_site_fract_z
  _atom_site_occupancy
  Re  Re1       1.0  0.477115860769399  0.7282959301949528  0.7585236844636764  1.0000
  Re  Re2       1.0  0.6693325007218297  0.5738583084574863  0.23596290254009472  1.0000
  C   C1        1.0  0.8977086474949906  0.46756517287309607  0.18471923837917942  1.0000
  C   C2        1.0  0.5519909962017812  0.45419550426625166  0.7955707407425916  1.0000
  C   C3        1.0  0.5544158892216111  0.4268370554100588  0.09017089684456117  1.0000
  C   C4        1.0  0.4012606798110564  0.31835119682705126  0.307521110305827  1.0000
  C   C5        1.0  0.306206973363504  0.6462780941507312  0.6139185316243944  1.0000
  C   C6        1.0  0.37035192569970826  0.9917177849279382  0.6747579655658795  1.0000
  C   C7        1.0  0.7724813780263646  0.8645462010109549  0.7772374501628828  1.0000
  C   C8        1.0  0.9022448682730161  0.835831375514875  0.1727975049337409  1.0000
  C   C9        1.0  0.24087750809223274  0.6096955068663706  0.8689241613392312  1.0000
  C   C10       1.0  0.5148839444081743  0.7801962908389286  0.23329440408964874  1.0000
  I   I1        1.0  0.9028148690830361  0.8302499204614693  0.5116058236600444  1.0000
  I   I2        1.0  0.7951644925153403  0.2045464500814873  0.569247805922105  1.0000
  O   O1        1.0  0.6156737864441745  0.327058589269526  0.7828671463882262  1.0000
  O   O2        1.0  0.9456110226650527  0.9009678427383947  0.7900797588850257  1.0000
  O   O3        1.0  0.4195171827628255  0.8819858359492816  0.2686750666679171  1.0000
  O   O4        1.0  0.26878553891687396  0.10122500553305525  0.6478987857694699  1.0000
  O   O5        1.0  0.01360024018986894  0.3894240987483246  0.17793565249847587  1.0000
  O   O6        1.0  0.9777352251317777  0.004378497008475257  0.13087821833380342  1.0000
  O   O7        1.0  0.4885357108809986  0.26477318665285915  0.037659109848152676  1.0000
  O   O8        1.0  0.2514375874449941  0.6750879254830805  0.5165857329986683  1.0000
  O   O9        1.0  0.06754670113632033  0.5543961615882831  0.8822800770917495  1.0000
  O   O10       1.0  0.28591079900514493  0.17071021440800654  0.3542169026705422  1.0000
data_image56
_chemical_formula_structural       Re2C10I2O10
_chemical_formula_sum              "Re2 C10 I2 O10"
_cell_length_a       6.7806348447214
_cell_length_b       6.7806348447214
_cell_length_c       10.993743
_cell_angle_alpha    90.0
_cell_angle_beta     90.0
_cell_angle_gamma    110.32517840843863

_space_group_name_H-M_alt    "P 1"
_space_group_IT_number       1

loop_
  _space_group_symop_operation_xyz
  'x, y, z'

loop_
  _atom_site_type_symbol
  _atom_site_label
  _atom_site_symmetry_multiplicity
  _atom_site_fract_x
  _atom_site_fract_y
  _atom_site_fract_z
  _atom_site_occupancy
  Re  Re1       1.0  0.4947889347684439  0.7264866636487562  0.7428118827835872  1.0000
  Re  Re2       1.0  0.6750379117836164  0.5537195087409158  0.24635876423947026  1.0000
  C   C1        1.0  0.9702087623979417  0.5082708785441383  0.2507536991560642  1.0000
  C   C2        1.0  0.6713107333378712  0.5530421766629738  0.7674526091982101  1.0000
  C   C3        1.0  0.5473019668462467  0.4526764908485142  0.08797211937217315  1.0000
  C   C4        1.0  0.4276765039092517  0.3596982837321293  0.33915512827121863  1.0000
  C   C5        1.0  0.3967833421493263  0.6138431061210363  0.5813015245119346  1.0000
  C   C6        1.0  0.3633841609175619  0.9985722247302616  0.6662257351181067  1.0000
  C   C7        1.0  0.7567062312144486  0.9420506680352104  0.8126894324460354  1.0000
  C   C8        1.0  0.8559400121822712  0.8190742574125105  0.1524321278931833  1.0000
  C   C9        1.0  0.28263461588148264  0.5617834873251832  0.8581972953103588  1.0000
  C   C10       1.0  0.5267978919903932  0.753448385426837  0.25961156210449665  1.0000
  I   I1        1.0  0.8431789929683849  0.8264731392390141  0.5085859553012608  1.0000
  I   I2        1.0  0.7540337276123984  0.20439717457828355  0.555604378469509  1.0000
  O   O1        1.0  0.7519047693378743  0.4216796084973121  0.765619519254582  1.0000
  O   O2        1.0  0.9077638708434925  0.035855758231988055  0.8637787096549545  1.0000
  O   O3        1.0  0.43805419299321685  0.8721489606942117  0.24316088683906778  1.0000
  O   O4        1.0  0.28347087723486597  0.12714228053045828  0.6921962751842238  1.0000
  O   O5        1.0  0.12447647284318841  0.46697518875841704  0.2491374126399605  1.0000
  O   O6        1.0  0.9263860360759176  0.9926359540355352  0.11023235854653596  1.0000
  O   O7        1.0  0.440863143379453  0.31910972383567954  0.024342201951870562  1.0000
  O   O8        1.0  0.3303162637092978  0.5256320251378966  0.4913789782693568  1.0000
  O   O9        1.0  0.12856862333857985  0.4456118095185361  0.8974960207121782  1.0000
  O   O10       1.0  0.31853078909886834  0.22655551533428062  0.3985144764735283  1.0000
data_image57
_chemical_formula_structural       Re2C10I2O10
_chemical_formula_sum              "Re2 C10 I2 O10"
_cell_length_a       6.7806348447214
_cell_length_b       6.7806348447214
_cell_length_c       10.993743
_cell_angle_alpha    90.0
_cell_angle_beta     90.0
_cell_angle_gamma    110.32517840843863

_space_group_name_H-M_alt    "P 1"
_space_group_IT_number       1

loop_
  _space_group_symop_operation_xyz
  'x, y, z'

loop_
  _atom_site_type_symbol
  _atom_site_label
  _atom_site_symmetry_multiplicity
  _atom_site_fract_x
  _atom_site_fract_y
  _atom_site_fract_z
  _atom_site_occupancy
  Re  Re1       1.0  0.5182270634908069  0.7428949589613985  0.7238502519938985  1.0000
  Re  Re2       1.0  0.6327297552252297  0.5542728323293606  0.23386115853870265  1.0000
  C   C1        1.0  0.8799975538332827  0.4516821605511214  0.2688412865831766  1.0000
  C   C2        1.0  0.7639565746208318  0.674514569682821  0.7953170118482386  1.0000
  C   C3        1.0  0.49271614606351766  0.3824801050024584  0.10898250901902728  1.0000
  C   C4        1.0  0.43829380372397797  0.2989730804359665  0.32369362373810884  1.0000
  C   C5        1.0  0.32818860199877253  0.580031322377487  0.5911727908511069  1.0000
  C   C6        1.0  0.2630264912046579  0.8509932861353674  0.7347854642046636  1.0000
  C   C7        1.0  0.5796837725357444  0.9623003162243106  0.8267769051159791  1.0000
  C   C8        1.0  0.8439928905404441  0.844878848763882  0.15970643081493457  1.0000
  C   C9        1.0  0.3768617281681707  0.552106291575744  0.8470091475777367  1.0000
  C   C10       1.0  0.4301967314757458  0.7017609041256503  0.27008701802156787  1.0000
  I   I1        1.0  0.8913707558285893  0.8179136793476934  0.5221586006921115  1.0000
  I   I2        1.0  0.8205843237158168  0.2515851716249504  0.5462108073479292  1.0000
  O   O1        1.0  0.8912785465308898  0.5791610337555158  0.791560000098937  1.0000
  O   O2        1.0  0.622384817177281  0.1005738098935558  0.8914769726345978  1.0000
  O   O3        1.0  0.3602193443691417  0.8267869994578323  0.24031945996327422  1.0000
  O   O4        1.0  0.1492610470301119  0.9322392816380258  0.7790035493014305  1.0000
  O   O5        1.0  0.0318999105415938  0.4199030852915364  0.24670643398115225  1.0000
  O   O6        1.0  0.9599241757019332  0.0059623893518125914  0.12997474858428112  1.0000
  O   O7        1.0  0.41270721012744077  0.21943778008724346  0.06392255578395951  1.0000
  O   O8        1.0  0.2237148718740718  0.4939607847330433  0.5160190266796042  1.0000
  O   O9        1.0  0.28378022383778917  0.4076190038840632  0.9147233582558593  1.0000
  O   O10       1.0  0.3186285933785169  0.14365916769125228  0.3668454444930298  1.0000
data_image58
_chemical_formula_structural       Re2C10I2O10
_chemical_formula_sum              "Re2 C10 I2 O10"
_cell_length_a       6.7806348447214
_cell_length_b       6.7806348447214
_cell_length_c       10.993743
_cell_angle_alpha    90.0
_cell_angle_beta     90.0
_cell_angle_gamma    110.32517840843863

_space_group_name_H-M_alt    "P 1"
_space_group_IT_number       1

loop_
  _space_group_symop_operation_xyz
  'x, y, z'

loop_
  _atom_site_type_symbol
  _atom_site_label
  _atom_site_symmetry_multiplicity
  _atom_site_fract_x
  _atom_site_fract_y
  _atom_site_fract_z
  _atom_site_occupancy
  Re  Re1       1.0  0.560760690950057  0.7685389680303718  0.7271585327810359  1.0000
  Re  Re2       1.0  0.6372310329091079  0.5585251398270342  0.20603618224336256  1.0000
  C   C1        1.0  0.8503799260513644  0.4203781644714  0.2713485818341285  1.0000
  C   C2        1.0  0.7162022188539499  0.6212590448074872  0.8354549532228454  1.0000
  C   C3        1.0  0.5011456337453601  0.2818945710053899  0.10714989435309787  1.0000
  C   C4        1.0  0.4450617622105796  0.3534416198527517  0.31819226670538153  1.0000
  C   C5        1.0  0.3290064239656876  0.5334065221614372  0.6298570629451923  1.0000
  C   C6        1.0  0.2977069041899446  0.8941777166140633  0.7129548848757676  1.0000
  C   C7        1.0  0.6545593267912153  0.02867803979689354  0.8170909672546105  1.0000
  C   C8        1.0  0.8182774651032636  0.8152336686734035  0.11670865505021677  1.0000
  C   C9        1.0  0.33810686646635546  0.5827251252299336  0.8444829796776624  1.0000
  C   C10       1.0  0.450671667853151  0.6823405933695357  0.24738025395337068  1.0000
  I   I1        1.0  0.854724122749318  0.7882431211525284  0.5114241700705882  1.0000
  I   I2        1.0  0.8023468938363144  0.2561629613459452  0.5742546614463112  1.0000
  O   O1        1.0  0.7929412642737522  0.4908612450116847  0.8814422317543428  1.0000
  O   O2        1.0  0.6527042041283388  0.14470223995264297  0.899078806875914  1.0000
  O   O3        1.0  0.3263552411976283  0.7541562591364113  0.23035189573512113  1.0000
  O   O4        1.0  0.19702368486498592  0.9926446303297504  0.7582853047679156  1.0000
  O   O5        1.0  0.9541780531671284  0.3362106916258871  0.23811656215567648  1.0000
  O   O6        1.0  0.9162313271171081  0.9992671301985547  0.12857961098448414  1.0000
  O   O7        1.0  0.44376471688053043  0.10556208507381001  0.11732446353737858  1.0000
  O   O8        1.0  0.26590197094800927  0.4956855949039668  0.5378655421470177  1.0000
  O   O9        1.0  0.2724848644003696  0.5135973816735521  0.9440383149640676  1.0000
  O   O10       1.0  0.3250008265517227  0.23219074033792023  0.3785848674784934  1.0000
data_image59
_chemical_formula_structural       Re2C10I2O10
_chemical_formula_sum              "Re2 C10 I2 O10"
_cell_length_a       6.7806348447214
_cell_length_b       6.7806348447214
_cell_length_c       10.993743
_cell_angle_alpha    90.0
_cell_angle_beta     90.0
_cell_angle_gamma    110.32517840843863

_space_group_name_H-M_alt    "P 1"
_space_group_IT_number       1

loop_
  _space_group_symop_operation_xyz
  'x, y, z'

loop_
  _atom_site_type_symbol
  _atom_site_label
  _atom_site_symmetry_multiplicity
  _atom_site_fract_x
  _atom_site_fract_y
  _atom_site_fract_z
  _atom_site_occupancy
  Re  Re1       1.0  0.58271667503805  0.7598428955488963  0.711445368202709  1.0000
  Re  Re2       1.0  0.6241922256188269  0.5501526328027592  0.20413750967185199  1.0000
  C   C1        1.0  0.8341761554873902  0.4014441407618039  0.25341820323734765  1.0000
  C   C2        1.0  0.7710656753283843  0.7300449681638552  0.8397154150252474  1.0000
  C   C3        1.0  0.49266109120927715  0.34207484761517  0.07444447261708294  1.0000
  C   C4        1.0  0.5323131117288833  0.31985998870772625  0.34837383562859164  1.0000
  C   C5        1.0  0.3984035693850394  0.5685193156052649  0.5988808916354559  1.0000
  C   C6        1.0  0.3818834959159758  0.950232288666327  0.6949737741877527  1.0000
  C   C7        1.0  0.7207070728826388  0.0714929006923457  0.8419418841346118  1.0000
  C   C8        1.0  0.8596518807848462  0.8004992369219089  0.16656294693915447  1.0000
  C   C9        1.0  0.2955751258379249  0.6136915358825605  0.8042222625011207  1.0000
  C   C10       1.0  0.46375529361562456  0.6847293441562883  0.2914269798848829  1.0000
  I   I1        1.0  0.7563860645443785  0.769867576491474  0.5068278880533661  1.0000
  I   I2        1.0  0.7895596804310056  0.2456771645590251  0.6061162416728268  1.0000
  O   O1        1.0  0.8901951491873135  0.6651148377201175  0.873534251391555  1.0000
  O   O2        1.0  0.8387544071302793  0.19807178790181723  0.9072354385218382  1.0000
  O   O3        1.0  0.3530194017222051  0.7678948612902017  0.31797990975170765  1.0000
  O   O4        1.0  0.35066341113951066  0.09974237923968254  0.691010657336402  1.0000
  O   O5        1.0  0.9723639626481078  0.3387159757343725  0.27310187511558154  1.0000
  O   O6        1.0  0.9931179979933762  0.9730280974837264  0.17999431758250217  1.0000
  O   O7        1.0  0.35232052011359555  0.21121162618382494  0.018084240839814202  1.0000
  O   O8        1.0  0.2811849034470577  0.40860520761916047  0.5634725356894956  1.0000
  O   O9        1.0  0.16535275476756892  0.4760041644549129  0.8554232961281619  1.0000
  O   O10       1.0  0.46616876255346384  0.171435162048946  0.4108709198035251  1.0000
data_image60
_chemical_formula_structural       Re2C10I2O10
_chemical_formula_sum              "Re2 C10 I2 O10"
_cell_length_a       6.7806348447214
_cell_length_b       6.7806348447214
_cell_length_c       10.993743
_cell_angle_alpha    90.0
_cell_angle_beta     90.0
_cell_angle_gamma    110.32517840843863

_space_group_name_H-M_alt    "P 1"
_space_group_IT_number       1

loop_
  _space_group_symop_operation_xyz
  'x, y, z'

loop_
  _atom_site_type_symbol
  _atom_site_label
  _atom_site_symmetry_multiplicity
  _atom_site_fract_x
  _atom_site_fract_y
  _atom_site_fract_z
  _atom_site_occupancy
  Re  Re1       1.0  0.536581995261144  0.7797683578185185  0.7254034239047199  1.0000
  Re  Re2       1.0  0.6505338963860555  0.5824653742249756  0.1817176843059312  1.0000
  C   C1        1.0  0.8608335443389259  0.38417426741742355  0.19854548918099305  1.0000
  C   C2        1.0  0.7295931033867273  0.6517543358980218  0.8258741560792574  1.0000
  C   C3        1.0  0.4972576226616388  0.4516668649248491  0.042657540195242157  1.0000
  C   C4        1.0  0.5791244327778939  0.33374496120197844  0.3223750996806056  1.0000
  C   C5        1.0  0.33627046893616996  0.48972406398917273  0.5593742527877373  1.0000
  C   C6        1.0  0.3389514089890159  0.9051056890255924  0.7179792397002566  1.0000
  C   C7        1.0  0.6518776205758527  0.010311002092702859  0.8408826006554269  1.0000
  C   C8        1.0  0.8924374820729818  0.8198191876912034  0.19756621604155492  1.0000
  C   C9        1.0  0.306711448932769  0.5933363020300555  0.8123193412739304  1.0000
  C   C10       1.0  0.41287155526813346  0.6642928468016231  0.25398207769511666  1.0000
  I   I1        1.0  0.755809686210374  0.8052222171692913  0.5246173119813206  1.0000
  I   I2        1.0  0.8465123912406894  0.18447795880847206  0.6366531483331115  1.0000
  O   O1        1.0  0.8298010931509231  0.5613186881768113  0.8611210595794325  1.0000
  O   O2        1.0  0.7748239661766867  0.09332934139733218  0.9286432425780007  1.0000
  O   O3        1.0  0.2932526564258203  0.7252959916972817  0.30733238808709135  1.0000
  O   O4        1.0  0.24102379729655463  0.012071531635003074  0.6891667935140051  1.0000
  O   O5        1.0  0.029684966999621976  0.370896739385147  0.2082049588603481  1.0000
  O   O6        1.0  0.9896938440615538  0.9966937870436834  0.25419668428297776  1.0000
  O   O7        1.0  0.39211647449563314  0.2641113951277988  0.01876597785654564  1.0000
  O   O8        1.0  0.2984017016811906  0.3936937981394024  0.4671787095703594  1.0000
  O   O9        1.0  0.17530203274905823  0.4342491273396223  0.7957394068218322  1.0000
  O   O10       1.0  0.5160895450071041  0.1813356717150672  0.37847839589857557  1.0000
data_image61
_chemical_formula_structural       Re2C10I2O10
_chemical_formula_sum              "Re2 C10 I2 O10"
_cell_length_a       6.7806348447214
_cell_length_b       6.7806348447214
_cell_length_c       10.993743
_cell_angle_alpha    90.0
_cell_angle_beta     90.0
_cell_angle_gamma    110.32517840843863

_space_group_name_H-M_alt    "P 1"
_space_group_IT_number       1

loop_
  _space_group_symop_operation_xyz
  'x, y, z'

loop_
  _atom_site_type_symbol
  _atom_site_label
  _atom_site_symmetry_multiplicity
  _atom_site_fract_x
  _atom_site_fract_y
  _atom_site_fract_z
  _atom_site_occupancy
  Re  Re1       1.0  0.5239174766543554  0.7635090027887843  0.7452364250638995  1.0000
  Re  Re2       1.0  0.6943905383583904  0.6114108851259719  0.17769347147165432  1.0000
  C   C1        1.0  0.8369324093051063  0.4912984424264175  0.07298440339024947  1.0000
  C   C2        1.0  0.6289019455145514  0.55266061870611  0.8018958222629324  1.0000
  C   C3        1.0  0.47784073376413616  0.4441017981431281  0.06759463489591061  1.0000
  C   C4        1.0  0.6775626250393578  0.39796674556216044  0.2844421341007542  1.0000
  C   C5        1.0  0.37831063598521575  0.6234672080976148  0.6050315277299124  1.0000
  C   C6        1.0  0.317196209772133  0.9268502279365928  0.7280328751881311  1.0000
  C   C7        1.0  0.6245906820826954  0.9624662350692219  0.9237179564047069  1.0000
  C   C8        1.0  0.9002809550826747  0.8594751208452039  0.206334360549016  1.0000
  C   C9        1.0  0.2925743346416468  0.5609579043418529  0.8288064055084197  1.0000
  C   C10       1.0  0.4327134303385946  0.695095986977373  0.21384601703505254  1.0000
  I   I1        1.0  0.7230261147375849  0.7488591086816386  0.5068527689614605  1.0000
  I   I2        1.0  0.8737034007031957  0.1838181636684213  0.6464498580126129  1.0000
  O   O1        1.0  0.7026080425483214  0.42547551455502153  0.8271179688377075  1.0000
  O   O2        1.0  0.7669273847025104  0.9875825012577908  0.995866142766984  1.0000
  O   O3        1.0  0.3059219759309877  0.7666343444665762  0.22400409134025506  1.0000
  O   O4        1.0  0.17532126207233845  0.9914968308451463  0.7058648670345025  1.0000
  O   O5        1.0  0.9995823686006436  0.46939015742078527  0.04217858749268471  1.0000
  O   O6        1.0  0.9682323258618035  0.9841620560656579  0.2833475440589149  1.0000
  O   O7        1.0  0.3561330318261479  0.3050689039019307  0.02454354219454538  1.0000
  O   O8        1.0  0.21963704883984514  0.5604388166264053  0.5439680617461071  1.0000
  O   O9        1.0  0.12640018085425264  0.43403937088609074  0.8220046375104374  1.0000
  O   O10       1.0  0.6309822003397136  0.24889609831703313  0.34842172803312216  1.0000
data_image62
_chemical_formula_structural       Re2C10I2O10
_chemical_formula_sum              "Re2 C10 I2 O10"
_cell_length_a       6.7806348447214
_cell_length_b       6.7806348447214
_cell_length_c       10.993743
_cell_angle_alpha    90.0
_cell_angle_beta     90.0
_cell_angle_gamma    110.32517840843863

_space_group_name_H-M_alt    "P 1"
_space_group_IT_number       1

loop_
  _space_group_symop_operation_xyz
  'x, y, z'

loop_
  _atom_site_type_symbol
  _atom_site_label
  _atom_site_symmetry_multiplicity
  _atom_site_fract_x
  _atom_site_fract_y
  _atom_site_fract_z
  _atom_site_occupancy
  Re  Re1       1.0  0.5509147588286747  0.7738936400329592  0.747016925382258  1.0000
  Re  Re2       1.0  0.6794272297277028  0.6481603945956405  0.19918340159763243  1.0000
  C   C1        1.0  0.8687690209372204  0.5130935677573449  0.07788617126235726  1.0000
  C   C2        1.0  0.5823608358215183  0.5030406992267201  0.7889241534862229  1.0000
  C   C3        1.0  0.46338667387471016  0.43459358342366966  0.1126487981405502  1.0000
  C   C4        1.0  0.7278746942647205  0.39643483995719975  0.3055046793540566  1.0000
  C   C5        1.0  0.42783644892425543  0.8065576310252492  0.5828910611509459  1.0000
  C   C6        1.0  0.3971391159772452  0.948682246129534  0.8004785132716468  1.0000
  C   C7        1.0  0.8087790716260617  0.9205852589436448  0.8594681043448731  1.0000
  C   C8        1.0  0.9089619852959191  0.9483357285250815  0.2365880706792831  1.0000
  C   C9        1.0  0.2808842349554139  0.6039883278259247  0.8021918683602084  1.0000
  C   C10       1.0  0.4672210667405326  0.7773435495784589  0.20473563689420524  1.0000
  I   I1        1.0  0.7037817099813237  0.654112118861571  0.4823527094867416  1.0000
  I   I2        1.0  0.7811147063982038  0.1260030311506165  0.6309521095160381  1.0000
  O   O1        1.0  0.622941291681856  0.3849174276620372  0.8504769544889755  1.0000
  O   O2        1.0  0.974705306574652  0.973393157264692  0.9095082033305566  1.0000
  O   O3        1.0  0.3800371861533575  0.8900518528681756  0.18738553728691532  1.0000
  O   O4        1.0  0.24235209741435107  0.9709639818566461  0.8134080361710577  1.0000
  O   O5        1.0  0.9632199622491159  0.39721059599602215  0.06822971206881732  1.0000
  O   O6        1.0  0.041488651175010154  0.08341149294846661  0.2749338501680429  1.0000
  O   O7        1.0  0.3465169646559192  0.313918009890912  0.05036165773926088  1.0000
  O   O8        1.0  0.3187769661590565  0.8641852662420161  0.5205409666361825  1.0000
  O   O9        1.0  0.11557926566629155  0.4680141229862257  0.7985027970694043  1.0000
  O   O10       1.0  0.7334642713433774  0.23849790264143897  0.35345256699713123  1.0000
data_image63
_chemical_formula_structural       Re2C10I2O10
_chemical_formula_sum              "Re2 C10 I2 O10"
_cell_length_a       6.7806348447214
_cell_length_b       6.7806348447214
_cell_length_c       10.993743
_cell_angle_alpha    90.0
_cell_angle_beta     90.0
_cell_angle_gamma    110.32517840843863

_space_group_name_H-M_alt    "P 1"
_space_group_IT_number       1

loop_
  _space_group_symop_operation_xyz
  'x, y, z'

loop_
  _atom_site_type_symbol
  _atom_site_label
  _atom_site_symmetry_multiplicity
  _atom_site_fract_x
  _atom_site_fract_y
  _atom_site_fract_z
  _atom_site_occupancy
  Re  Re1       1.0  0.5557516233300793  0.7680890475450702  0.7031582323164547  1.0000
  Re  Re2       1.0  0.6484879958731266  0.6024917069674951  0.24068989855613016  1.0000
  C   C1        1.0  0.9128289113716884  0.6073863593635509  0.16521305359605917  1.0000
  C   C2        1.0  0.6617457671594571  0.5898868787087304  0.8359973287661581  1.0000
  C   C3        1.0  0.44364143947529205  0.41042810910802685  0.11960691921646359  1.0000
  C   C4        1.0  0.6849328412954907  0.37297838165912345  0.2976031791609518  1.0000
  C   C5        1.0  0.3978159693128991  0.8582298189442699  0.5546326739452844  1.0000
  C   C6        1.0  0.40824118583767804  0.9258238365202951  0.7743747652949656  1.0000
  C   C7        1.0  0.6325245449910692  0.7882541754017056  0.8762890205770781  1.0000
  C   C8        1.0  0.12039392445892123  0.07163328282796799  0.2313592215344424  1.0000
  C   C9        1.0  0.3047112950984929  0.5525505323500919  0.7668014182363528  1.0000
  C   C10       1.0  0.42558103608182285  0.7729384217305355  0.2003249962575295  1.0000
  I   I1        1.0  0.6872404405737287  0.6773051662120937  0.45810641177426903  1.0000
  I   I2        1.0  0.8220919337451269  0.12876521896986326  0.6273265183566351  1.0000
  O   O1        1.0  0.6593423454945754  0.4361271492387655  0.8916189575857733  1.0000
  O   O2        1.0  0.6459440326314891  0.8539652096339022  0.9875668589905852  1.0000
  O   O3        1.0  0.39515303398016444  0.9146569669699323  0.18191790919232426  1.0000
  O   O4        1.0  0.2999662292567805  0.9844271119941428  0.8322433387140853  1.0000
  O   O5        1.0  0.059409130133031285  0.5527195927869126  0.14050050229190023  1.0000
  O   O6        1.0  0.23036021718512506  0.24622080006582747  0.24709418888302012  1.0000
  O   O7        1.0  0.4064879934098557  0.2767443108753036  0.05387396945963722  1.0000
  O   O8        1.0  0.30384458240844947  0.9776444464512417  0.5373845682273607  1.0000
  O   O9        1.0  0.14744175310723961  0.45646918216956395  0.8238925557998616  1.0000
  O   O10       1.0  0.663372365622175  0.2061742541393912  0.3369639613531165  1.0000
data_image64
_chemical_formula_structural       Re2C10I2O10
_chemical_formula_sum              "Re2 C10 I2 O10"
_cell_length_a       6.7806348447214
_cell_length_b       6.7806348447214
_cell_length_c       10.993743
_cell_angle_alpha    90.0
_cell_angle_beta     90.0
_cell_angle_gamma    110.32517840843863

_space_group_name_H-M_alt    "P 1"
_space_group_IT_number       1

loop_
  _space_group_symop_operation_xyz
  'x, y, z'

loop_
  _atom_site_type_symbol
  _atom_site_label
  _atom_site_symmetry_multiplicity
  _atom_site_fract_x
  _atom_site_fract_y
  _atom_site_fract_z
  _atom_site_occupancy
  Re  Re1       1.0  0.5032848604037407  0.742535520578536  0.7186581932672325  1.0000
  Re  Re2       1.0  0.6205501442350009  0.5415988897420609  0.22796604505806592  1.0000
  C   C1        1.0  0.855455393230721  0.6607002348154569  0.13316953633992845  1.0000
  C   C2        1.0  0.7080065393014364  0.5858763638361448  0.7550666939084087  1.0000
  C   C3        1.0  0.39071736502900656  0.40018827624513  0.10324730665222549  1.0000
  C   C4        1.0  0.7275421431725496  0.2934391092053825  0.27867138144723613  1.0000
  C   C5        1.0  0.26017296289447933  0.7328410024286957  0.5771590835640986  1.0000
  C   C6        1.0  0.39253029670138867  0.9219082674462069  0.8182300041286423  1.0000
  C   C7        1.0  0.7035600633859611  0.9178374120605362  0.8649382284232654  1.0000
  C   C8        1.0  0.18983745734551474  0.2548416825684108  0.295566186258486  1.0000
  C   C9        1.0  0.33184629543323163  0.463870311046069  0.7630747168360996  1.0000
  C   C10       1.0  0.5035098993922519  0.751994585824141  0.17220329659870745  1.0000
  I   I1        1.0  0.7281967850437814  0.7901880108356311  0.4464109149892571  1.0000
  I   I2        1.0  0.8696628822819197  0.141843737670715  0.6692082453303645  1.0000
  O   O1        1.0  0.8146845520510991  0.531588369127471  0.8237428902905203  1.0000
  O   O2        1.0  0.8105188639692698  0.9792551384491213  0.9457262514019816  1.0000
  O   O3        1.0  0.44902024239265104  0.8515688522889209  0.10713399068539507  1.0000
  O   O4        1.0  0.3703310743363903  0.055350087676178994  0.8685113785888148  1.0000
  O   O5        1.0  0.9954060884380543  0.7151501916188967  0.05383389385472725  1.0000
  O   O6        1.0  0.05157458128584189  0.1475262233233987  0.3653376350318717  1.0000
  O   O7        1.0  0.39985303744909984  0.3490480488725654  0.9987284679932796  1.0000
  O   O8        1.0  0.18576404089747012  0.844736503647467  0.5309690962057457  1.0000
  O   O9        1.0  0.25624821712404283  0.2919994414665707  0.7932733728813204  1.0000
  O   O10       1.0  0.6485527354270872  0.11957660932208655  0.31956520997373683  1.0000
data_image65
_chemical_formula_structural       Re2C10I2O10
_chemical_formula_sum              "Re2 C10 I2 O10"
_cell_length_a       6.7806348447214
_cell_length_b       6.7806348447214
_cell_length_c       10.993743
_cell_angle_alpha    90.0
_cell_angle_beta     90.0
_cell_angle_gamma    110.32517840843863

_space_group_name_H-M_alt    "P 1"
_space_group_IT_number       1

loop_
  _space_group_symop_operation_xyz
  'x, y, z'

loop_
  _atom_site_type_symbol
  _atom_site_label
  _atom_site_symmetry_multiplicity
  _atom_site_fract_x
  _atom_site_fract_y
  _atom_site_fract_z
  _atom_site_occupancy
  Re  Re1       1.0  0.5255759612037788  0.7603389904059928  0.7495727978771914  1.0000
  Re  Re2       1.0  0.6084734194698695  0.5141634824155626  0.19574151376280866  1.0000
  C   C1        1.0  0.887179522422416  0.7184909316306842  0.12947412613831472  1.0000
  C   C2        1.0  0.778112398415853  0.6611848405945931  0.7510200041997788  1.0000
  C   C3        1.0  0.28676997622979  0.4282896687258343  0.12694269667130248  1.0000
  C   C4        1.0  0.8099416391718108  0.34347704701926873  0.23368080660008353  1.0000
  C   C5        1.0  0.25402656474260255  0.6754298255579734  0.6113816674403816  1.0000
  C   C6        1.0  0.37799522756184395  0.8118556974163801  0.8978486856662907  1.0000
  C   C7        1.0  0.711106279699109  0.9490289943161576  0.8924841964131608  1.0000
  C   C8        1.0  0.4294442897366388  0.3996993514375584  0.3574596111147053  1.0000
  C   C9        1.0  0.36313655656712285  0.4770157721341717  0.8108131844387235  1.0000
  C   C10       1.0  0.5189781069463812  0.7653286313576071  0.2243177521844126  1.0000
  I   I1        1.0  0.6883953170058201  0.7894054492655384  0.40732107093498754  1.0000
  I   I2        1.0  0.8161880865185869  0.08857684583082637  0.6400392217139846  1.0000
  O   O1        1.0  0.9374027401429256  0.6563279321639597  0.7821239225700549  1.0000
  O   O2        1.0  0.8278872643179997  0.09326175033852979  0.9369441883257817  1.0000
  O   O3        1.0  0.4574928866645689  0.9046226748814876  0.2285756825813703  1.0000
  O   O4        1.0  0.41240986358451875  0.9111395264838154  0.9837224705738465  1.0000
  O   O5        1.0  0.05974438099966206  0.7842665080757703  0.08955329974287593  1.0000
  O   O6        1.0  0.31803333180341353  0.2249335566803703  0.37848639681836177  1.0000
  O   O7        1.0  0.1150766809213658  0.3853317050472646  0.07883878145684466  1.0000
  O   O8        1.0  0.14459236653920837  0.7154957863207794  0.5402359088238754  1.0000
  O   O9        1.0  0.2272047223641163  0.30950875051556587  0.8192422003809566  1.0000
  O   O10       1.0  0.8376312360467719  0.24975464984526616  0.31178813624969626  1.0000
data_image66
_chemical_formula_structural       Re2C10I2O10
_chemical_formula_sum              "Re2 C10 I2 O10"
_cell_length_a       6.7806348447214
_cell_length_b       6.7806348447214
_cell_length_c       10.993743
_cell_angle_alpha    90.0
_cell_angle_beta     90.0
_cell_angle_gamma    110.32517840843863

_space_group_name_H-M_alt    "P 1"
_space_group_IT_number       1

loop_
  _space_group_symop_operation_xyz
  'x, y, z'

loop_
  _atom_site_type_symbol
  _atom_site_label
  _atom_site_symmetry_multiplicity
  _atom_site_fract_x
  _atom_site_fract_y
  _atom_site_fract_z
  _atom_site_occupancy
  Re  Re1       1.0  0.5567900151086095  0.7630367963405159  0.7726797444433742  1.0000
  Re  Re2       1.0  0.5732780825472003  0.5115712953273862  0.18249653972638255  1.0000
  C   C1        1.0  0.8256899588599013  0.7576044837929086  0.16332858801471986  1.0000
  C   C2        1.0  0.7329252705704458  0.570357339300843  0.7880439341264652  1.0000
  C   C3        1.0  0.27220395405385744  0.5512041945285545  0.12305138562807558  1.0000
  C   C4        1.0  0.788367999444832  0.3962117560536853  0.26996024857664197  1.0000
  C   C5        1.0  0.3743912213458973  0.7007871674694447  0.6151703495445423  1.0000
  C   C6        1.0  0.3385518542948251  0.8105674170875585  0.8813660319547949  1.0000
  C   C7        1.0  0.8312952757346772  0.9188783355299734  0.8754976016109851  1.0000
  C   C8        1.0  0.4522927517016741  0.4158203769958626  0.3388300346441968  1.0000
  C   C9        1.0  0.4880611021689638  0.4989728616678516  0.8587467667109452  1.0000
  C   C10       1.0  0.5396794889997536  0.7797495693142857  0.22415209221979082  1.0000
  I   I1        1.0  0.712041733947802  0.7413482035531925  0.4126434459903027  1.0000
  I   I2        1.0  0.7423930284581923  0.09054242151756675  0.5926931406965852  1.0000
  O   O1        1.0  0.8873952940873843  0.5261083016338701  0.7965437194710716  1.0000
  O   O2        1.0  0.9958231975189547  0.04264489595932908  0.9075180623495885  1.0000
  O   O3        1.0  0.472526629082186  0.9295372901544121  0.20567902014722253  1.0000
  O   O4        1.0  0.29688202999882013  0.9220056647710657  0.9475235017532921  1.0000
  O   O5        1.0  0.965145183756413  0.8813741611338033  0.12586506765420508  1.0000
  O   O6        1.0  0.36856269548103854  0.27065455837785857  0.40841113737394125  1.0000
  O   O7        1.0  0.1175121895686787  0.5164576020655756  0.06459559709431482  1.0000
  O   O8        1.0  0.2794207168352194  0.6993136059994663  0.5354083632602394  1.0000
  O   O9        1.0  0.4246719759886686  0.3700039524584927  0.9393898468020017  1.0000
  O   O10       1.0  0.8043248524560427  0.3042614691648568  0.3570337322476816  1.0000
data_image67
_chemical_formula_structural       Re2C10I2O10
_chemical_formula_sum              "Re2 C10 I2 O10"
_cell_length_a       6.7806348447214
_cell_length_b       6.7806348447214
_cell_length_c       10.993743
_cell_angle_alpha    90.0
_cell_angle_beta     90.0
_cell_angle_gamma    110.32517840843863

_space_group_name_H-M_alt    "P 1"
_space_group_IT_number       1

loop_
  _space_group_symop_operation_xyz
  'x, y, z'

loop_
  _atom_site_type_symbol
  _atom_site_label
  _atom_site_symmetry_multiplicity
  _atom_site_fract_x
  _atom_site_fract_y
  _atom_site_fract_z
  _atom_site_occupancy
  Re  Re1       1.0  0.5488605794439176  0.7294466519462807  0.7823813457005032  1.0000
  Re  Re2       1.0  0.5860840487623572  0.5453855251954093  0.22564805305431726  1.0000
  C   C1        1.0  0.8501266152126987  0.7941758249963506  0.1639534542202523  1.0000
  C   C2        1.0  0.7378313352146331  0.6171337073181499  0.7124962869940559  1.0000
  C   C3        1.0  0.29411188886811807  0.46614444796594373  0.12125205433029412  1.0000
  C   C4        1.0  0.8507125111188161  0.5019508591985118  0.21876061192198934  1.0000
  C   C5        1.0  0.3613707139991402  0.6337468174629844  0.6490346631183763  1.0000
  C   C6        1.0  0.33391184509943644  0.7851531851486183  0.8859038698939955  1.0000
  C   C7        1.0  0.8029927676016193  0.050005697187834874  0.8005099644718567  1.0000
  C   C8        1.0  0.4008212455953447  0.36650564561539967  0.340091711565547  1.0000
  C   C9        1.0  0.5828331124313488  0.5147459841681866  0.8986134238100058  1.0000
  C   C10       1.0  0.5177401436057362  0.8239078152420494  0.22174570787025985  1.0000
  I   I1        1.0  0.7962681228529782  0.7364277387529878  0.42503665126184764  1.0000
  I   I2        1.0  0.6438395008557398  0.08539543043643782  0.5576512682012137  1.0000
  O   O1        1.0  0.8678878810941832  0.5477520774288984  0.6842627095614138  1.0000
  O   O2        1.0  0.9446238869640613  0.21439380834881083  0.7864432591353009  1.0000
  O   O3        1.0  0.4262412202466227  0.9312662699943479  0.21946807280165403  1.0000
  O   O4        1.0  0.17127452625534528  0.7982247973494446  0.9148037382225269  1.0000
  O   O5        1.0  0.9313685919259508  0.9587545048689674  0.11848473155896236  1.0000
  O   O6        1.0  0.2565813853625161  0.25766556728249235  0.3870268884296679  1.0000
  O   O7        1.0  0.1579940880104336  0.38303725850315634  0.06131482206823539  1.0000
  O   O8        1.0  0.2512366499904324  0.5279042005696045  0.5796975663594812  1.0000
  O   O9        1.0  0.62575491250684  0.37844318877470007  0.9701942588274383  1.0000
  O   O10       1.0  0.9789543085222691  0.4229308236694486  0.23192411490176573  1.0000
data_image68
_chemical_formula_structural       Re2C10I2O10
_chemical_formula_sum              "Re2 C10 I2 O10"
_cell_length_a       6.7806348447214
_cell_length_b       6.7806348447214
_cell_length_c       10.993743
_cell_angle_alpha    90.0
_cell_angle_beta     90.0
_cell_angle_gamma    110.32517840843863

_space_group_name_H-M_alt    "P 1"
_space_group_IT_number       1

loop_
  _space_group_symop_operation_xyz
  'x, y, z'

loop_
  _atom_site_type_symbol
  _atom_site_label
  _atom_site_symmetry_multiplicity
  _atom_site_fract_x
  _atom_site_fract_y
  _atom_site_fract_z
  _atom_site_occupancy
  Re  Re1       1.0  0.5257161412904494  0.7096651705909544  0.770760021549077  1.0000
  Re  Re2       1.0  0.5829885199016478  0.5871656115557002  0.2554249272390899  1.0000
  C   C1        1.0  0.88244603184612  0.7970161125465802  0.18430506883844355  1.0000
  C   C2        1.0  0.8113323422188483  0.659756037832806  0.7451070979507547  1.0000
  C   C3        1.0  0.4442007338186419  0.5144727821811361  0.09740695968165453  1.0000
  C   C4        1.0  0.766183622540674  0.44896186710229324  0.24623835842708117  1.0000
  C   C5        1.0  0.3845114491539139  0.47825058477804316  0.669589813101491  1.0000
  C   C6        1.0  0.28725120213099786  0.7118454479292615  0.8735679397066893  1.0000
  C   C7        1.0  0.7998123450847996  0.032254464067289046  0.7921963954290044  1.0000
  C   C8        1.0  0.3654714797767097  0.31374193271158535  0.3120433479364463  1.0000
  C   C9        1.0  0.6623543670020535  0.513625429910497  0.8323465989968117  1.0000
  C   C10       1.0  0.41209864368405597  0.7995252878335213  0.283465206804211  1.0000
  I   I1        1.0  0.7821775336995056  0.7375357701746014  0.439206179409653  1.0000
  I   I2        1.0  0.6636258370686574  0.13256411739787077  0.5195142228377048  1.0000
  O   O1        1.0  0.9692570199580087  0.693924229375215  0.6816896680110339  1.0000
  O   O2        1.0  0.9525069207403103  0.18639325878399782  0.7963917444614307  1.0000
  O   O3        1.0  0.2508323984622359  0.8155622699563789  0.29090173276794473  1.0000
  O   O4        1.0  0.13891512101592599  0.7469167443897593  0.9072183055381329  1.0000
  O   O5        1.0  0.0033890116295529626  0.920304741832005  0.12564726132155082  1.0000
  O   O6        1.0  0.19667185263359638  0.17261856422383648  0.3146708326490814  1.0000
  O   O7        1.0  0.3417131726063785  0.38305319465292414  0.035204761788711604  1.0000
  O   O8        1.0  0.32662076001334905  0.31927046074425725  0.601325066870949  1.0000
  O   O9        1.0  0.7470407557558036  0.4137945495588147  0.8921570427257602  1.0000
  O   O10       1.0  0.8705451796063457  0.3325951532386226  0.2708771135943401  1.0000
data_image69
_chemical_formula_structural       Re2C10I2O10
_chemical_formula_sum              "Re2 C10 I2 O10"
_cell_length_a       6.7806348447214
_cell_length_b       6.7806348447214
_cell_length_c       10.993743
_cell_angle_alpha    90.0
_cell_angle_beta     90.0
_cell_angle_gamma    110.32517840843863

_space_group_name_H-M_alt    "P 1"
_space_group_IT_number       1

loop_
  _space_group_symop_operation_xyz
  'x, y, z'

loop_
  _atom_site_type_symbol
  _atom_site_label
  _atom_site_symmetry_multiplicity
  _atom_site_fract_x
  _atom_site_fract_y
  _atom_site_fract_z
  _atom_site_occupancy
  Re  Re1       1.0  0.544919938202426  0.6931187807774427  0.7402867669414509  1.0000
  Re  Re2       1.0  0.5858598932470191  0.5871928486673534  0.24913010663631074  1.0000
  C   C1        1.0  0.7032086401520785  0.8734870108898907  0.1571936155152596  1.0000
  C   C2        1.0  0.8406391305032038  0.7340462066496612  0.70213307181472  1.0000
  C   C3        1.0  0.4080604911573695  0.4087904345402387  0.13975803462146769  1.0000
  C   C4        1.0  0.7593124829176681  0.3842737290745604  0.22496733516631717  1.0000
  C   C5        1.0  0.38241695924671126  0.4108589105272744  0.6653745359932801  1.0000
  C   C6        1.0  0.41294268586903043  0.7239863210675078  0.8985653784827987  1.0000
  C   C7        1.0  0.7657221363829969  0.04023673567173547  0.7644790061605207  1.0000
  C   C8        1.0  0.39943838931882436  0.3286769862910852  0.366911380805527  1.0000
  C   C9        1.0  0.6340110279958021  0.5662818087497491  0.867372173603261  1.0000
  C   C10       1.0  0.3190683686813134  0.5981534362866967  0.33775027713752853  1.0000
  I   I1        1.0  0.754321048963153  0.7846043223740661  0.45979851442273006  1.0000
  I   I2        1.0  0.7262475879050779  0.19417448043825292  0.5021572402330771  1.0000
  O   O1        1.0  0.9407760458173555  0.6181862339981445  0.6929304082959669  1.0000
  O   O2        1.0  0.8579960945506186  0.21358620713274545  0.7996442588871603  1.0000
  O   O3        1.0  0.1796793454715704  0.5614357868264419  0.3993743129172695  1.0000
  O   O4        1.0  0.35708563803192817  0.7177499544449646  0.9997676767865887  1.0000
  O   O5        1.0  0.7617176673428454  0.9750305952581491  0.07457694071619522  1.0000
  O   O6        1.0  0.25365790593347104  0.17862233300789132  0.37310557223309476  1.0000
  O   O7        1.0  0.2707445143541266  0.2620323064808689  0.08624011875158615  1.0000
  O   O8        1.0  0.30610899382930024  0.2372201399335419  0.6358593276606902  1.0000
  O   O9        1.0  0.7032984813915554  0.45296236742144447  0.9311004849476785  1.0000
  O   O10       1.0  0.7782057252523081  0.24410233526654268  0.24885024739161946  1.0000
data_image70
_chemical_formula_structural       Re2C10I2O10
_chemical_formula_sum              "Re2 C10 I2 O10"
_cell_length_a       6.7806348447214
_cell_length_b       6.7806348447214
_cell_length_c       10.993743
_cell_angle_alpha    90.0
_cell_angle_beta     90.0
_cell_angle_gamma    110.32517840843863

_space_group_name_H-M_alt    "P 1"
_space_group_IT_number       1

loop_
  _space_group_symop_operation_xyz
  'x, y, z'

loop_
  _atom_site_type_symbol
  _atom_site_label
  _atom_site_symmetry_multiplicity
  _atom_site_fract_x
  _atom_site_fract_y
  _atom_site_fract_z
  _atom_site_occupancy
  Re  Re1       1.0  0.5524019226945653  0.6521128673702411  0.7458860336945258  1.0000
  Re  Re2       1.0  0.5686156127011384  0.5510358372905436  0.2544863163523882  1.0000
  C   C1        1.0  0.6268114850275023  0.8090914081146137  0.15480824952527208  1.0000
  C   C2        1.0  0.8393577274750142  0.6416504297260948  0.7450135074837445  1.0000
  C   C3        1.0  0.3852968144529913  0.38016692634952887  0.1362437559906381  1.0000
  C   C4        1.0  0.8054056575635714  0.4402089874064104  0.19077582817467162  1.0000
  C   C5        1.0  0.3466452302767402  0.35308350814406037  0.7461377574804705  1.0000
  C   C6        1.0  0.301113131846538  0.6457880308022941  0.8677925038196104  1.0000
  C   C7        1.0  0.6176206773441799  0.9407350779029165  0.7651016900796214  1.0000
  C   C8        1.0  0.41864042204303753  0.2569993990976449  0.3698392394792601  1.0000
  C   C9        1.0  0.6519680767090059  0.5764015892780149  0.8893392841066421  1.0000
  C   C10       1.0  0.32442557305434494  0.6388131700771575  0.3194858672105657  1.0000
  I   I1        1.0  0.7869231824339994  0.8283110259119573  0.46311325712061335  1.0000
  I   I2        1.0  0.7689160717947384  0.30473725928711726  0.470303439996341  1.0000
  O   O1        1.0  0.9334781786592408  0.5348725673845849  0.7195579719996222  1.0000
  O   O2        1.0  0.7012756077249525  0.11862794534820598  0.8054097871562129  1.0000
  O   O3        1.0  0.22173635351785945  0.7269831636461479  0.3521056466007989  1.0000
  O   O4        1.0  0.19454968546685916  0.640101428864036  0.9464874348397383  1.0000
  O   O5        1.0  0.7364572399613395  0.9411910071980725  0.09992164905995582  1.0000
  O   O6        1.0  0.30804185735963985  0.1066654336078583  0.40695261370943436  1.0000
  O   O7        1.0  0.22731927753594397  0.2599756728289603  0.10063481997207555  1.0000
  O   O8        1.0  0.18804143917668048  0.21106646364715473  0.7477196925610502  1.0000
  O   O9        1.0  0.6854846466504416  0.46384181793822277  0.970642909629157  1.0000
  O   O10       1.0  0.9492328271208118  0.42510603010941966  0.15537652515633746  1.0000
data_image71
_chemical_formula_structural       Re2C10I2O10
_chemical_formula_sum              "Re2 C10 I2 O10"
_cell_length_a       6.7806348447214
_cell_length_b       6.7806348447214
_cell_length_c       10.993743
_cell_angle_alpha    90.0
_cell_angle_beta     90.0
_cell_angle_gamma    110.32517840843863

_space_group_name_H-M_alt    "P 1"
_space_group_IT_number       1

loop_
  _space_group_symop_operation_xyz
  'x, y, z'

loop_
  _atom_site_type_symbol
  _atom_site_label
  _atom_site_symmetry_multiplicity
  _atom_site_fract_x
  _atom_site_fract_y
  _atom_site_fract_z
  _atom_site_occupancy
  Re  Re1       1.0  0.5290737972011333  0.6026227586266967  0.75315866010307  1.0000
  Re  Re2       1.0  0.5713230333759792  0.5582317641140003  0.28551054007538357  1.0000
  C   C1        1.0  0.5808557606459258  0.7994656538563012  0.18367222330745642  1.0000
  C   C2        1.0  0.8485543671345182  0.7373042913121879  0.6940641037702111  1.0000
  C   C3        1.0  0.45959959685714236  0.2816033285523198  0.16950757232705213  1.0000
  C   C4        1.0  0.8723913314466094  0.646552065698436  0.19637906944862538  1.0000
  C   C5        1.0  0.320410087556686  0.30179905032900595  0.7468714220412862  1.0000
  C   C6        1.0  0.33836434690209405  0.7036165945022671  0.8382533457365727  1.0000
  C   C7        1.0  0.7010305429929808  0.8964928161598277  0.7536229462603964  1.0000
  C   C8        1.0  0.3618744190768065  0.3044167009877987  0.3967682672911195  1.0000
  C   C9        1.0  0.6489195908973496  0.5286067173009861  0.8752307805312064  1.0000
  C   C10       1.0  0.33938604385831406  0.6735150932245049  0.32921389064257683  1.0000
  I   I1        1.0  0.7123324143220608  0.7634225267706081  0.4705696342085383  1.0000
  I   I2        1.0  0.8253178237877499  0.3260474271638407  0.41774162097003  1.0000
  O   O1        1.0  0.009429934174377097  0.7425952478550611  0.6509115805557159  1.0000
  O   O2        1.0  0.7311497369891209  0.07303390937173382  0.7335810439297896  1.0000
  O   O3        1.0  0.3026084395616026  0.8036787517634927  0.38214832417993533  1.0000
  O   O4        1.0  0.21937367279126743  0.7840893805195764  0.8694619081066038  1.0000
  O   O5        1.0  0.6471222327605046  0.974280846558568  0.14921926731964316  1.0000
  O   O6        1.0  0.22985992048776094  0.1972880782828912  0.46472659958199025  1.0000
  O   O7        1.0  0.3061594559067821  0.21005059978968946  0.12863947958610258  1.0000
  O   O8        1.0  0.20706314893442768  0.15297095010278236  0.6900734919564253  1.0000
  O   O9        1.0  0.7155518748270545  0.5553138586977701  0.976318168348882  1.0000
  O   O10       1.0  0.04137492200430479  0.6340424513174314  0.18079255781896297  1.0000
data_image72
_chemical_formula_structural       Re2C10I2O10
_chemical_formula_sum              "Re2 C10 I2 O10"
_cell_length_a       6.7806348447214
_cell_length_b       6.7806348447214
_cell_length_c       10.993743
_cell_angle_alpha    90.0
_cell_angle_beta     90.0
_cell_angle_gamma    110.32517840843863

_space_group_name_H-M_alt    "P 1"
_space_group_IT_number       1

loop_
  _space_group_symop_operation_xyz
  'x, y, z'

loop_
  _atom_site_type_symbol
  _atom_site_label
  _atom_site_symmetry_multiplicity
  _atom_site_fract_x
  _atom_site_fract_y
  _atom_site_fract_z
  _atom_site_occupancy
  Re  Re1       1.0  0.5624956065545424  0.6284731121181028  0.753230277707381  1.0000
  Re  Re2       1.0  0.5637212233811141  0.4946252445231412  0.26391698724279317  1.0000
  C   C1        1.0  0.485842986680851  0.735367248572588  0.18884384584613292  1.0000
  C   C2        1.0  0.886732918167919  0.673792008206998  0.7437432921541391  1.0000
  C   C3        1.0  0.34354646750204615  0.3178135678562736  0.16014428672847497  1.0000
  C   C4        1.0  0.8704302139220546  0.6500874053332124  0.19017999235009583  1.0000
  C   C5        1.0  0.40947701450780505  0.3223836907999301  0.786695990332667  1.0000
  C   C6        1.0  0.38128344362566435  0.7724655962230567  0.852185573806122  1.0000
  C   C7        1.0  0.67338945616253  0.9388242638166654  0.6906077544135112  1.0000
  C   C8        1.0  0.40962797050500843  0.39202564543729035  0.3888933676570178  1.0000
  C   C9        1.0  0.6819498294740344  0.5877450183470798  0.9099654245167406  1.0000
  C   C10       1.0  0.2722819063402079  0.7558373082390397  0.3451618366574367  1.0000
  I   I1        1.0  0.6672118295092795  0.7841309220816178  0.5035274121621894  1.0000
  I   I2        1.0  0.8215806059600315  0.2687329840442878  0.3837412120983681  1.0000
  O   O1        1.0  0.072808314942441  0.7426122125670832  0.7349277113783145  1.0000
  O   O2        1.0  0.7664965700644477  0.11717462349220908  0.7011963015767925  1.0000
  O   O3        1.0  0.28121279180419567  0.908520372122708  0.3794076917734333  1.0000
  O   O4        1.0  0.3310922829949561  0.8517166366572673  0.93734571386875  1.0000
  O   O5        1.0  0.4958554659038098  0.902771979651297  0.15477007787493974  1.0000
  O   O6        1.0  0.3082799964691055  0.3588576316387593  0.47894436205335233  1.0000
  O   O7        1.0  0.20335577149085896  0.28803357521317663  0.09661910354437704  1.0000
  O   O8        1.0  0.33803320235741907  0.151398600683558  0.7764213641847858  1.0000
  O   O9        1.0  0.6873212826233782  0.6795905805179147  0.011035951055296422  1.0000
  O   O10       1.0  0.04086010615172778  0.646950263717647  0.16196971569797464  1.0000
data_image73
_chemical_formula_structural       Re2C10I2O10
_chemical_formula_sum              "Re2 C10 I2 O10"
_cell_length_a       6.7806348447214
_cell_length_b       6.7806348447214
_cell_length_c       10.993743
_cell_angle_alpha    90.0
_cell_angle_beta     90.0
_cell_angle_gamma    110.32517840843863

_space_group_name_H-M_alt    "P 1"
_space_group_IT_number       1

loop_
  _space_group_symop_operation_xyz
  'x, y, z'

loop_
  _atom_site_type_symbol
  _atom_site_label
  _atom_site_symmetry_multiplicity
  _atom_site_fract_x
  _atom_site_fract_y
  _atom_site_fract_z
  _atom_site_occupancy
  Re  Re1       1.0  0.5981202769728461  0.6630610943350822  0.7671242976774794  1.0000
  Re  Re2       1.0  0.5622878314409888  0.47411557179358443  0.2547822046027669  1.0000
  C   C1        1.0  0.5719802707450374  0.7380614034849589  0.24995663101876492  1.0000
  C   C2        1.0  0.8930307335895599  0.5951952483081024  0.6926290729572218  1.0000
  C   C3        1.0  0.31838792014913603  0.2880379829945991  0.1827943704578746  1.0000
  C   C4        1.0  0.8267189466787184  0.5384570758392946  0.16718572310035051  1.0000
  C   C5        1.0  0.4272511290565375  0.33239604743124906  0.7471841436351442  1.0000
  C   C6        1.0  0.3486334653648744  0.6706732712442668  0.885950754152058  1.0000
  C   C7        1.0  0.7131679237631112  0.9941391687192329  0.7700590057885036  1.0000
  C   C8        1.0  0.4276274156655233  0.3068538458837249  0.40891045060039916  1.0000
  C   C9        1.0  0.625525340195613  0.6141512915751877  0.9350777619907277  1.0000
  C   C10       1.0  0.9749659128002773  0.7265468118593561  0.4224975641741499  1.0000
  I   I1        1.0  0.6952612162988104  0.878506875336699  0.5123002474817828  1.0000
  I   I2        1.0  0.8506432793683655  0.2969527388779527  0.3617131978278247  1.0000
  O   O1        1.0  0.9851138882801753  0.49633174993653917  0.6435634172627601  1.0000
  O   O2        1.0  0.7651996768287466  0.17185601285923746  0.7576521356675261  1.0000
  O   O3        1.0  0.027785527013836388  0.7008385357861857  0.32527403171806996  1.0000
  O   O4        1.0  0.1810301945073576  0.5803551203861581  0.9192361333391178  1.0000
  O   O5        1.0  0.5067165256209809  0.870661470676052  0.28822794047851885  1.0000
  O   O6        1.0  0.2720631437435655  0.24505717037518915  0.4598392798128537  1.0000
  O   O7        1.0  0.2096182460090366  0.30114308102109877  0.09914137836338893  1.0000
  O   O8        1.0  0.3151516408902786  0.1989134852865898  0.6949033343396644  1.0000
  O   O9        1.0  0.6912473574271503  0.7277736527449703  0.012793174928413586  1.0000
  O   O10       1.0  0.9478670097623004  0.4873654316876345  0.11239994832670096  1.0000
data_image74
_chemical_formula_structural       Re2C10I2O10
_chemical_formula_sum              "Re2 C10 I2 O10"
_cell_length_a       6.7806348447214
_cell_length_b       6.7806348447214
_cell_length_c       10.993743
_cell_angle_alpha    90.0
_cell_angle_beta     90.0
_cell_angle_gamma    110.32517840843863

_space_group_name_H-M_alt    "P 1"
_space_group_IT_number       1

loop_
  _space_group_symop_operation_xyz
  'x, y, z'

loop_
  _atom_site_type_symbol
  _atom_site_label
  _atom_site_symmetry_multiplicity
  _atom_site_fract_x
  _atom_site_fract_y
  _atom_site_fract_z
  _atom_site_occupancy
  Re  Re1       1.0  0.6234954179440229  0.6955441994838519  0.7817841828474169  1.0000
  Re  Re2       1.0  0.5664817383849796  0.4735846144161927  0.23622707168993606  1.0000
  C   C1        1.0  0.4709532395028421  0.7127387018454034  0.2527843898257336  1.0000
  C   C2        1.0  0.8458196700511886  0.6167478347026059  0.7156779397643652  1.0000
  C   C3        1.0  0.43295760888734386  0.2522655045353295  0.08893831717279235  1.0000
  C   C4        1.0  0.8244492903888145  0.5382593543211496  0.15654709039889786  1.0000
  C   C5        1.0  0.35812280734159607  0.33126885523946664  0.6822182096823741  1.0000
  C   C6        1.0  0.3324034500228687  0.684416049557745  0.8180411473689881  1.0000
  C   C7        1.0  0.7944241371748364  0.9932515581142525  0.7942817311784376  1.0000
  C   C8        1.0  0.3999158435092781  0.31054607147589897  0.384186481918464  1.0000
  C   C9        1.0  0.7443112711386293  0.7408917641496069  0.9228477902382002  1.0000
  C   C10       1.0  0.14712335835383655  0.8104193767260124  0.4200813027686606  1.0000
  I   I1        1.0  0.6807990878176373  0.8825142468093441  0.5369556407785454  1.0000
  I   I2        1.0  0.7818304515350922  0.21221614118109644  0.3786640103004243  1.0000
  O   O1        1.0  0.9244562315692743  0.5046771444138494  0.6683973192192496  1.0000
  O   O2        1.0  0.9009591532601424  0.16559195376632974  0.7732192259011873  1.0000
  O   O3        1.0  0.01991605024740545  0.8098929968789357  0.35631611338515157  1.0000
  O   O4        1.0  0.16358226718274296  0.6664572215428501  0.8288120694232577  1.0000
  O   O5        1.0  0.41433995269880186  0.8590891016576614  0.30212828971873823  1.0000
  O   O6        1.0  0.24509112297359795  0.22575266153382878  0.4365644158735057  1.0000
  O   O7        1.0  0.2907492696906003  0.12227894324415478  0.03752301683058574  1.0000
  O   O8        1.0  0.2408842532666009  0.1848287508438811  0.6419486796303195  1.0000
  O   O9        1.0  0.8610585717424729  0.8422716581099904  0.002945388339043342  1.0000
  O   O10       1.0  0.991340152886557  0.5134968200625301  0.14940626953928426  1.0000
data_image75
_chemical_formula_structural       Re2C10I2O10
_chemical_formula_sum              "Re2 C10 I2 O10"
_cell_length_a       6.7806348447214
_cell_length_b       6.7806348447214
_cell_length_c       10.993743
_cell_angle_alpha    90.0
_cell_angle_beta     90.0
_cell_angle_gamma    110.32517840843863

_space_group_name_H-M_alt    "P 1"
_space_group_IT_number       1

loop_
  _space_group_symop_operation_xyz
  'x, y, z'

loop_
  _atom_site_type_symbol
  _atom_site_label
  _atom_site_symmetry_multiplicity
  _atom_site_fract_x
  _atom_site_fract_y
  _atom_site_fract_z
  _atom_site_occupancy
  Re  Re1       1.0  0.6393659687036388  0.74845555299471  0.7750773562618107  1.0000
  Re  Re2       1.0  0.5867974478339726  0.4621736401600949  0.22554802341012917  1.0000
  C   C1        1.0  0.4988312061861697  0.6784040805281586  0.15965901429051246  1.0000
  C   C2        1.0  0.837022590516313  0.6136439113625638  0.6915953688055057  1.0000
  C   C3        1.0  0.5335498850802102  0.2582798138499928  0.09875314287717882  1.0000
  C   C4        1.0  0.8172808770873163  0.4435805062007219  0.13429438485226847  1.0000
  C   C5        1.0  0.37625744486620927  0.4123511426583346  0.7452198183314892  1.0000
  C   C6        1.0  0.38616891701093436  0.7656583872187865  0.8780929647976157  1.0000
  C   C7        1.0  0.8743622809995562  0.03282675401288193  0.7833311214518038  1.0000
  C   C8        1.0  0.3772985864022574  0.32179904981771923  0.33951117132215086  1.0000
  C   C9        1.0  0.7372541201791143  0.8764158737139623  0.9632199534835783  1.0000
  C   C10       1.0  0.11640913353951392  0.6783627233853893  0.3568923630708342  1.0000
  I   I1        1.0  0.5280616862865914  0.8054950694275032  0.5602235253461608  1.0000
  I   I2        1.0  0.8087630842092739  0.22157374090999704  0.3880027615005354  1.0000
  O   O1        1.0  0.9733969138246095  0.5650284279888469  0.6544932160225058  1.0000
  O   O2        1.0  0.8794746063272911  0.2044043778757496  0.8115401951813966  1.0000
  O   O3        1.0  0.9771528006307584  0.7233670443440883  0.3626366340228879  1.0000
  O   O4        1.0  0.28823486646033275  0.7737373200739711  0.9603039427181707  1.0000
  O   O5        1.0  0.4423575116394272  0.8128832601990572  0.14517089503474126  1.0000
  O   O6        1.0  0.29420702383334296  0.1812896649097444  0.4049177148666379  1.0000
  O   O7        1.0  0.48291306039944537  0.18810534911270801  0.0030042579296680936  1.0000
  O   O8        1.0  0.3609640589917955  0.2443993014693183  0.7164821348757267  1.0000
  O   O9        1.0  0.7792329491345853  0.7426277879291234  0.01482024828277928  1.0000
  O   O10       1.0  0.9927649553888627  0.4478258508267972  0.13460022180631176  1.0000
data_image76
_chemical_formula_structural       Re2C10I2O10
_chemical_formula_sum              "Re2 C10 I2 O10"
_cell_length_a       6.7806348447214
_cell_length_b       6.7806348447214
_cell_length_c       10.993743
_cell_angle_alpha    90.0
_cell_angle_beta     90.0
_cell_angle_gamma    110.32517840843863

_space_group_name_H-M_alt    "P 1"
_space_group_IT_number       1

loop_
  _space_group_symop_operation_xyz
  'x, y, z'

loop_
  _atom_site_type_symbol
  _atom_site_label
  _atom_site_symmetry_multiplicity
  _atom_site_fract_x
  _atom_site_fract_y
  _atom_site_fract_z
  _atom_site_occupancy
  Re  Re1       1.0  0.6663008265361146  0.8094046340836375  0.78848956351998  1.0000
  Re  Re2       1.0  0.5776885310427812  0.4359862040426988  0.21300218603002907  1.0000
  C   C1        1.0  0.5971048947217847  0.7303453721934601  0.19423090310313168  1.0000
  C   C2        1.0  0.8434590052495697  0.7127604476308966  0.7011831808243523  1.0000
  C   C3        1.0  0.5032945892959516  0.3292680969398064  0.055141133418646245  1.0000
  C   C4        1.0  0.8695272545267307  0.4673215684106543  0.15796285494587065  1.0000
  C   C5        1.0  0.616906592683589  0.3004660745946889  0.758446758644025  1.0000
  C   C6        1.0  0.3552237786829392  0.7318193079716242  0.822820416055005  1.0000
  C   C7        1.0  0.88877608950728  0.10171645529951845  0.7477666485337767  1.0000
  C   C8        1.0  0.3651488868691289  0.20761921411795226  0.3284219940641349  1.0000
  C   C9        1.0  0.8236094740369165  0.8586114845466087  0.9321984888872425  1.0000
  C   C10       1.0  0.08978947624443712  0.778830865126561  0.35336528184482985  1.0000
  I   I1        1.0  0.4152932012954843  0.7749119843764015  0.5994596054787922  1.0000
  I   I2        1.0  0.780680695572232  0.16391700045818158  0.3826609191250681  1.0000
  O   O1        1.0  0.9363798498171455  0.6740504353107323  0.6223881576852168  1.0000
  O   O2        1.0  0.0075289945999070795  0.27770332217227356  0.7494715157264653  1.0000
  O   O3        1.0  0.1714514771670192  0.6759267920776737  0.3156565218735274  1.0000
  O   O4        1.0  0.20555612523140973  0.6895370327334069  0.8823275727140865  1.0000
  O   O5        1.0  0.5334259075330204  0.868297691627504  0.1757000479313345  1.0000
  O   O6        1.0  0.32198158447068426  0.097636408580837  0.41471109178739946  1.0000
  O   O7        1.0  0.5328743771848016  0.277910199192641  0.9642229653535472  1.0000
  O   O8        1.0  0.44525115274731686  0.22616852854482428  0.7239078856700997  1.0000
  O   O9        1.0  0.9007948752592706  0.7997637981166952  0.006129183558447382  1.0000
  O   O10       1.0  0.03882390241009261  0.4934185555049197  0.15537873063457822  1.0000
data_image77
_chemical_formula_structural       Re2C10I2O10
_chemical_formula_sum              "Re2 C10 I2 O10"
_cell_length_a       6.7806348447214
_cell_length_b       6.7806348447214
_cell_length_c       10.993743
_cell_angle_alpha    90.0
_cell_angle_beta     90.0
_cell_angle_gamma    110.32517840843863

_space_group_name_H-M_alt    "P 1"
_space_group_IT_number       1

loop_
  _space_group_symop_operation_xyz
  'x, y, z'

loop_
  _atom_site_type_symbol
  _atom_site_label
  _atom_site_symmetry_multiplicity
  _atom_site_fract_x
  _atom_site_fract_y
  _atom_site_fract_z
  _atom_site_occupancy
  Re  Re1       1.0  0.7071631520377687  0.8093379719537829  0.7944079697810742  1.0000
  Re  Re2       1.0  0.5855460516886963  0.3495425046922955  0.21737283965549375  1.0000
  C   C1        1.0  0.5351375748472379  0.5902666986890459  0.154596269881827  1.0000
  C   C2        1.0  0.8732119365637298  0.8355973928825513  0.6276329151547276  1.0000
  C   C3        1.0  0.35888803258325797  0.233799977455578  0.11399014002220681  1.0000
  C   C4        1.0  0.8417624432779782  0.4538392455004333  0.09619656428477069  1.0000
  C   C5        1.0  0.5381541837727162  0.4930294735223345  0.7555203426858784  1.0000
  C   C6        1.0  0.395170417726513  0.8650951588969009  0.8642426809064471  1.0000
  C   C7        1.0  0.8358419469758389  0.09143744140990129  0.7399404034077833  1.0000
  C   C8        1.0  0.36275943616045336  0.34255931340970647  0.3459438651138228  1.0000
  C   C9        1.0  0.852766275529553  0.9473899664244736  0.9291848320357445  1.0000
  C   C10       1.0  0.9866967390126874  0.830559115469931  0.34198887799252725  1.0000
  I   I1        1.0  0.40121321528323384  0.7542711809357799  0.5876313590916988  1.0000
  I   I2        1.0  0.7948828034502751  0.15227685928060897  0.3911785007262974  1.0000
  O   O1        1.0  0.9704593743151252  0.858994680598155  0.5419127340405312  1.0000
  O   O2        1.0  0.8844735270635171  0.2691595395791353  0.7401507273681656  1.0000
  O   O3        1.0  0.13903707517800284  0.7860944096876614  0.32275536868901794  1.0000
  O   O4        1.0  0.2708093448041672  0.8858567696182582  0.9353212864741608  1.0000
  O   O5        1.0  0.5445658070981364  0.7607735203179844  0.14580524919098062  1.0000
  O   O6        1.0  0.3143469431230437  0.3881165782686129  0.43554196712395477  1.0000
  O   O7        1.0  0.2730509431546721  0.19688608124645413  0.01841663877396657  1.0000
  O   O8        1.0  0.5226445978885104  0.31779911115952936  0.7597140301099299  1.0000
  O   O9        1.0  0.8818215647497932  0.9634733660535577  0.028070369288210495  1.0000
  O   O10       1.0  0.9996345756179347  0.5663478252748126  0.052452294796202684  1.0000
data_image78
_chemical_formula_structural       Re2C10I2O10
_chemical_formula_sum              "Re2 C10 I2 O10"
_cell_length_a       6.7806348447214
_cell_length_b       6.7806348447214
_cell_length_c       10.993743
_cell_angle_alpha    90.0
_cell_angle_beta     90.0
_cell_angle_gamma    110.32517840843863

_space_group_name_H-M_alt    "P 1"
_space_group_IT_number       1

loop_
  _space_group_symop_operation_xyz
  'x, y, z'

loop_
  _atom_site_type_symbol
  _atom_site_label
  _atom_site_symmetry_multiplicity
  _atom_site_fract_x
  _atom_site_fract_y
  _atom_site_fract_z
  _atom_site_occupancy
  Re  Re1       1.0  0.7304874112682933  0.8554496047872397  0.7793455907102582  1.0000
  Re  Re2       1.0  0.6134351009154948  0.3126940123160934  0.22206067853629188  1.0000
  C   C1        1.0  0.5232998820844572  0.5189156074388064  0.15089810053657254  1.0000
  C   C2        1.0  0.947877699966077  0.9021048788674236  0.6518952527415283  1.0000
  C   C3        1.0  0.3700051511945183  0.2242454769422367  0.11498229920119372  1.0000
  C   C4        1.0  0.8180537626052978  0.354629894843682  0.08931541599087532  1.0000
  C   C5        1.0  0.44479000272318014  0.2864306456759202  0.8609845388243321  1.0000
  C   C6        1.0  0.45384805349595775  0.873258839343535  0.8589128052200921  1.0000
  C   C7        1.0  0.8198636278607851  0.1586819044166985  0.7396800345598799  1.0000
  C   C8        1.0  0.47505556220513484  0.3820226404024636  0.38526794430437067  1.0000
  C   C9        1.0  0.8045726332308093  0.9506479983005249  0.9308190994983819  1.0000
  C   C10       1.0  0.8802987631335213  0.9242383527175604  0.28319461912740673  1.0000
  I   I1        1.0  0.45579320496835096  0.783082177700873  0.5880669243237141  1.0000
  I   I2        1.0  0.7288206079150785  0.14940106547260312  0.41064717688683233  1.0000
  O   O1        1.0  0.03603194865560577  0.8424268742300142  0.5794467819191085  1.0000
  O   O2        1.0  0.8190261913056083  0.318742222899157  0.7038246056141989  1.0000
  O   O3        1.0  0.9966163496036133  0.8873834333285024  0.2215056689983817  1.0000
  O   O4        1.0  0.288186550948121  0.8684396160500195  0.8911613085746067  1.0000
  O   O5        1.0  0.4785820123094246  0.674082484645359  0.14242721334401418  1.0000
  O   O6        1.0  0.3779112973850224  0.3507524814522087  0.482161407475448  1.0000
  O   O7        1.0  0.2321589683804632  0.17317067787519194  0.03586825772949501  1.0000
  O   O8        1.0  0.3677466079053786  0.2846360451703126  0.76512844905764  1.0000
  O   O9        1.0  0.8087944551244455  0.9456568050770223  0.02983730282743613  1.0000
  O   O10       1.0  0.9361319743775279  0.4360184875896776  0.019826163669802863  1.0000
data_image79
_chemical_formula_structural       Re2C10I2O10
_chemical_formula_sum              "Re2 C10 I2 O10"
_cell_length_a       6.7806348447214
_cell_length_b       6.7806348447214
_cell_length_c       10.993743
_cell_angle_alpha    90.0
_cell_angle_beta     90.0
_cell_angle_gamma    110.32517840843863

_space_group_name_H-M_alt    "P 1"
_space_group_IT_number       1

loop_
  _space_group_symop_operation_xyz
  'x, y, z'

loop_
  _atom_site_type_symbol
  _atom_site_label
  _atom_site_symmetry_multiplicity
  _atom_site_fract_x
  _atom_site_fract_y
  _atom_site_fract_z
  _atom_site_occupancy
  Re  Re1       1.0  0.7273930990333534  0.9144001345021506  0.765984747588483  1.0000
  Re  Re2       1.0  0.5970246387217302  0.3248109760827362  0.2291552767638552  1.0000
  C   C1        1.0  0.44490124498408784  0.5614581924334372  0.16542300895234044  1.0000
  C   C2        1.0  0.8926731257548491  0.7968139791090078  0.6657803890347501  1.0000
  C   C3        1.0  0.3895385838129081  0.15240779799390708  0.12259623556859013  1.0000
  C   C4        1.0  0.8180608272505336  0.3463796760227103  0.10138426079367693  1.0000
  C   C5        1.0  0.4004394536640852  0.18042163841518263  0.7693239485359881  1.0000
  C   C6        1.0  0.4355036544203909  0.7979666142600763  0.8684769470087467  1.0000
  C   C7        1.0  0.8666959532172431  0.19004704652591475  0.7437686819696578  1.0000
  C   C8        1.0  0.4203297150698734  0.39286559024687095  0.37756533252522595  1.0000
  C   C9        1.0  0.7653245013763409  0.9258539829658319  0.9509772083739618  1.0000
  C   C10       1.0  0.022593252278404273  0.8951708134338541  0.2801555360774743  1.0000
  I   I1        1.0  0.47527788681356486  0.7612755155443001  0.5766669916765189  1.0000
  I   I2        1.0  0.756643996365875  0.18028565641035132  0.4045796316729939  1.0000
  O   O1        1.0  0.9706043480396331  0.7748098099896785  0.575957244801611  1.0000
  O   O2        1.0  0.957234793526395  0.3606511081500767  0.7053871834303586  1.0000
  O   O3        1.0  0.04362765007704721  0.7284981689116785  0.2853295308722475  1.0000
  O   O4        1.0  0.3142272937768028  0.6487768478504002  0.9039895955086895  1.0000
  O   O5        1.0  0.41275552882796956  0.7129609923578812  0.15170534261172341  1.0000
  O   O6        1.0  0.272733581637843  0.35797890640411056  0.4397252460104729  1.0000
  O   O7        1.0  0.2099647506269382  0.02890779287888402  0.11352419291399775  1.0000
  O   O8        1.0  0.35442024045953024  0.2536673602464275  0.8566531957515765  1.0000
  O   O9        1.0  0.776476626044296  0.8658471860196999  0.0468543049897685  1.0000
  O   O10       1.0  0.9320659277263805  0.3816633070510443  0.021439726589681365  1.0000
data_image80
_chemical_formula_structural       Re2C10I2O10
_chemical_formula_sum              "Re2 C10 I2 O10"
_cell_length_a       6.7806348447214
_cell_length_b       6.7806348447214
_cell_length_c       10.993743
_cell_angle_alpha    90.0
_cell_angle_beta     90.0
_cell_angle_gamma    110.32517840843863

_space_group_name_H-M_alt    "P 1"
_space_group_IT_number       1

loop_
  _space_group_symop_operation_xyz
  'x, y, z'

loop_
  _atom_site_type_symbol
  _atom_site_label
  _atom_site_symmetry_multiplicity
  _atom_site_fract_x
  _atom_site_fract_y
  _atom_site_fract_z
  _atom_site_occupancy
  Re  Re1       1.0  0.6801439521589947  0.9471766716004261  0.7965465652866229  1.0000
  Re  Re2       1.0  0.5719707907924593  0.31931764189232903  0.23042110978313304  1.0000
  C   C1        1.0  0.4754204950704089  0.5571598094711714  0.1847447803582485  1.0000
  C   C2        1.0  0.9274371962508448  0.8827202711265647  0.7112675067392651  1.0000
  C   C3        1.0  0.39152442211560057  0.09732350592525311  0.11933282786062163  1.0000
  C   C4        1.0  0.7768441261615995  0.36497156469314923  0.10484932098148039  1.0000
  C   C5        1.0  0.5209313853601942  0.1031599857812775  0.8195998225506469  1.0000
  C   C6        1.0  0.38519549229230443  0.7473250364676197  0.8106499858289563  1.0000
  C   C7        1.0  0.8909054449478866  0.23872231642413144  0.769393033636074  1.0000
  C   C8        1.0  0.3673868870047478  0.4189004352639145  0.35876544412809414  1.0000
  C   C9        1.0  0.7443250003735048  0.9199371452479966  0.9576497687104147  1.0000
  C   C10       1.0  0.0018007561113898634  0.8627694875520477  0.33478232304487654  1.0000
  I   I1        1.0  0.5340325981018406  0.7753921124075478  0.5641895510394205  1.0000
  I   I2        1.0  0.7979294960052149  0.11837705124739584  0.3582556002251482  1.0000
  O   O1        1.0  0.03889731606024016  0.832190411619605  0.6459950419357309  1.0000
  O   O2        1.0  0.941409332882547  0.38184949320694006  0.705849238792405  1.0000
  O   O3        1.0  0.07720126369199286  0.739854460450327  0.3723184792231358  1.0000
  O   O4        1.0  0.2630385721749984  0.586370901888072  0.8127157840603798  1.0000
  O   O5        1.0  0.42966051226781965  0.6868721540256897  0.15077690885361147  1.0000
  O   O6        1.0  0.22078319202568328  0.41336754897794425  0.41518469782076256  1.0000
  O   O7        1.0  0.20687711008852452  0.08413770084937737  0.10861940237295982  1.0000
  O   O8        1.0  0.39993908219233587  0.17756081547615643  0.8082279479388297  1.0000
  O   O9        1.0  0.8102069614520947  0.8790642933602478  0.05255388927310434  1.0000
  O   O10       1.0  0.8953118727515726  0.4125797326409063  0.023256421769988208  1.0000
data_image81
_chemical_formula_structural       Re2C10I2O10
_chemical_formula_sum              "Re2 C10 I2 O10"
_cell_length_a       6.7806348447214
_cell_length_b       6.7806348447214
_cell_length_c       10.993743
_cell_angle_alpha    90.0
_cell_angle_beta     90.0
_cell_angle_gamma    110.32517840843863

_space_group_name_H-M_alt    "P 1"
_space_group_IT_number       1

loop_
  _space_group_symop_operation_xyz
  'x, y, z'

loop_
  _atom_site_type_symbol
  _atom_site_label
  _atom_site_symmetry_multiplicity
  _atom_site_fract_x
  _atom_site_fract_y
  _atom_site_fract_z
  _atom_site_occupancy
  Re  Re1       1.0  0.6790094827255  0.9366773545601549  0.8089568027359163  1.0000
  Re  Re2       1.0  0.5750487677810219  0.3120422070125879  0.22549280022070003  1.0000
  C   C1        1.0  0.5580665235000458  0.5903234348631738  0.21475149695232928  1.0000
  C   C2        1.0  0.9513384678581835  0.9272335876639493  0.7446377756059126  1.0000
  C   C3        1.0  0.4619216211403519  0.18770961563987942  0.07003090015492523  1.0000
  C   C4        1.0  0.7961000323541959  0.42278055185875624  0.11347897042099984  1.0000
  C   C5        1.0  0.4960460973843115  0.09645954487407869  0.8479486301335887  1.0000
  C   C6        1.0  0.41568042798861055  0.67037838008359  0.7892738673083728  1.0000
  C   C7        1.0  0.8228806607002825  0.266217779205036  0.7413165606890494  1.0000
  C   C8        1.0  0.3820622302455159  0.319792958041047  0.3809140888282683  1.0000
  C   C9        1.0  0.7913198155303895  0.936687985017725  0.9752346052576867  1.0000
  C   C10       1.0  0.11479955061772164  0.7847514081668694  0.3315465166646808  1.0000
  I   I1        1.0  0.5511856979475633  0.788089620913812  0.5584135715252085  1.0000
  I   I2        1.0  0.7036742893615315  0.07873241120493568  0.3596919410006872  1.0000
  O   O1        1.0  0.07480620965300977  0.8828587491484329  0.6842129779452001  1.0000
  O   O2        1.0  0.8014432034381909  0.36045564034513533  0.6584178256835503  1.0000
  O   O3        1.0  0.1994133566367001  0.9588242499006623  0.36686950355525894  1.0000
  O   O4        1.0  0.2881052993432067  0.5107575831985415  0.7790086354763038  1.0000
  O   O5        1.0  0.4904922093196195  0.7159081359485568  0.17488079173548213  1.0000
  O   O6        1.0  0.22208695145173174  0.29433346709546004  0.4271108652001542  1.0000
  O   O7        1.0  0.2980986272593571  0.15106893314156103  0.02484787352680874  1.0000
  O   O8        1.0  0.4448436071222994  0.23417588768135997  0.8168152008248967  1.0000
  O   O9        1.0  0.9111757736051403  0.012345630371008331  0.05501031665370282  1.0000
  O   O10       1.0  0.9130317763996709  0.4850792909336305  0.03031490520346367  1.0000
data_image82
_chemical_formula_structural       Re2C10I2O10
_chemical_formula_sum              "Re2 C10 I2 O10"
_cell_length_a       6.7806348447214
_cell_length_b       6.7806348447214
_cell_length_c       10.993743
_cell_angle_alpha    90.0
_cell_angle_beta     90.0
_cell_angle_gamma    110.32517840843863

_space_group_name_H-M_alt    "P 1"
_space_group_IT_number       1

loop_
  _space_group_symop_operation_xyz
  'x, y, z'

loop_
  _atom_site_type_symbol
  _atom_site_label
  _atom_site_symmetry_multiplicity
  _atom_site_fract_x
  _atom_site_fract_y
  _atom_site_fract_z
  _atom_site_occupancy
  Re  Re1       1.0  0.6684453293810757  0.9143580258273807  0.810409960308593  1.0000
  Re  Re2       1.0  0.5588407224710433  0.32076266217919464  0.21224242664089724  1.0000
  C   C1        1.0  0.5542696911929955  0.626408840679096  0.1384266009693376  1.0000
  C   C2        1.0  0.8847627649384384  0.814736143124458  0.7236236667592008  1.0000
  C   C3        1.0  0.45185775083959073  0.09839466480786593  0.10942537121059764  1.0000
  C   C4        1.0  0.8170849931432574  0.4226873805061594  0.14395188014718002  1.0000
  C   C5        1.0  0.5622176928339815  0.1510873718556657  0.7979532562865157  1.0000
  C   C6        1.0  0.4091509419165934  0.6599157718993591  0.7995673774095107  1.0000
  C   C7        1.0  0.9180399967921764  0.23333432719425695  0.7237199030643253  1.0000
  C   C8        1.0  0.4313475099964788  0.37246197807439696  0.375824958557755  1.0000
  C   C9        1.0  0.7949651402781405  0.9090619619788837  0.9532827068786255  1.0000
  C   C10       1.0  0.1400144088743003  0.7529264172296273  0.3127761935097446  1.0000
  I   I1        1.0  0.5416445631930336  0.8448958577303928  0.5933916046346758  1.0000
  I   I2        1.0  0.7241252231786773  0.13297467177707978  0.36788605180792944  1.0000
  O   O1        1.0  0.00837997021454262  0.7833856550179051  0.6507531266489376  1.0000
  O   O2        1.0  0.9881649958501324  0.33586105485512885  0.6429380358229929  1.0000
  O   O3        1.0  0.9710881946875524  0.6243036321199926  0.3474058012862537  1.0000
  O   O4        1.0  0.2712077107459237  0.5167635219761296  0.8155040425559754  1.0000
  O   O5        1.0  0.44465879043180934  0.6415443935721261  0.05600808399614104  1.0000
  O   O6        1.0  0.3239049590040699  0.44766721977526047  0.4383404256531666  1.0000
  O   O7        1.0  0.3396701707142797  0.9422693698180935  0.07357390406850108  1.0000
  O   O8        1.0  0.5144906194125731  0.277279394315564  0.7466423025888047  1.0000
  O   O9        1.0  0.8843434423321764  0.9852560911542738  0.0443737124608794  1.0000
  O   O10       1.0  0.9895369646353511  0.4523431881995929  0.10357168122774334  1.0000
data_image83
_chemical_formula_structural       Re2C10I2O10
_chemical_formula_sum              "Re2 C10 I2 O10"
_cell_length_a       6.7806348447214
_cell_length_b       6.7806348447214
_cell_length_c       10.993743
_cell_angle_alpha    90.0
_cell_angle_beta     90.0
_cell_angle_gamma    110.32517840843863

_space_group_name_H-M_alt    "P 1"
_space_group_IT_number       1

loop_
  _space_group_symop_operation_xyz
  'x, y, z'

loop_
  _atom_site_type_symbol
  _atom_site_label
  _atom_site_symmetry_multiplicity
  _atom_site_fract_x
  _atom_site_fract_y
  _atom_site_fract_z
  _atom_site_occupancy
  Re  Re1       1.0  0.7138116059601716  0.9294283330882237  0.809805496586288  1.0000
  Re  Re2       1.0  0.5532842965861852  0.3085985901320038  0.189829389179148  1.0000
  C   C1        1.0  0.3976916984070867  0.49248548000294123  0.10196462213207316  1.0000
  C   C2        1.0  0.8077017200063752  0.7384963122307457  0.7163859720503921  1.0000
  C   C3        1.0  0.42439159794689896  0.04210365663866603  0.10975881065996439  1.0000
  C   C4        1.0  0.8439226598258824  0.3782757699136511  0.15399770398805815  1.0000
  C   C5        1.0  0.5324621287200482  0.13057107591580133  0.8172584262439843  1.0000
  C   C6        1.0  0.46197786203208624  0.718714325045439  0.8470370718918481  1.0000
  C   C7        1.0  0.9798117572276521  0.24775362345841034  0.7764935750008409  1.0000
  C   C8        1.0  0.39668078685407454  0.34077212817009883  0.3270742516933592  1.0000
  C   C9        1.0  0.8556852421815347  0.8569050006455999  0.9434708079958806  1.0000
  C   C10       1.0  0.09443171515483197  0.6749529220764638  0.36106613782372693  1.0000
  I   I1        1.0  0.4911696325043752  0.9045575676814492  0.5993010519617932  1.0000
  I   I2        1.0  0.7374387315676514  0.14698938913041792  0.3433086253225824  1.0000
  O   O1        1.0  0.8886250841039836  0.658713785970213  0.64598556898646  1.0000
  O   O2        1.0  0.09312428632251502  0.37985426548804746  0.7286110259259565  1.0000
  O   O3        1.0  0.07898522366910306  0.697191534628691  0.4648247399518891  1.0000
  O   O4        1.0  0.29014285706725573  0.6948732179782225  0.8931441173568873  1.0000
  O   O5        1.0  0.47555924108962366  0.6747493032732863  0.07169509193886593  1.0000
  O   O6        1.0  0.28669008508800004  0.3559634659190394  0.4195241097799233  1.0000
  O   O7        1.0  0.2982786461630711  0.8930544676268124  0.05811797885075618  1.0000
  O   O8        1.0  0.38418012046899985  0.17010984041538452  0.816122809885324  1.0000
  O   O9        1.0  0.9098922896115306  0.8290111732350492  0.045060078314220986  1.0000
  O   O10       1.0  0.004603880758447615  0.3348891084793656  0.13903564546301583  1.0000
data_image84
_chemical_formula_structural       Re2C10I2O10
_chemical_formula_sum              "Re2 C10 I2 O10"
_cell_length_a       6.7806348447214
_cell_length_b       6.7806348447214
_cell_length_c       10.993743
_cell_angle_alpha    90.0
_cell_angle_beta     90.0
_cell_angle_gamma    110.32517840843863

_space_group_name_H-M_alt    "P 1"
_space_group_IT_number       1

loop_
  _space_group_symop_operation_xyz
  'x, y, z'

loop_
  _atom_site_type_symbol
  _atom_site_label
  _atom_site_symmetry_multiplicity
  _atom_site_fract_x
  _atom_site_fract_y
  _atom_site_fract_z
  _atom_site_occupancy
  Re  Re1       1.0  0.7107531954617679  0.9805441152370407  0.8015343141191602  1.0000
  Re  Re2       1.0  0.5841784313904292  0.29660333750168244  0.21132713494322267  1.0000
  C   C1        1.0  0.42502614680905043  0.4517677501000248  0.1358707655942623  1.0000
  C   C2        1.0  0.7346344721779903  0.7102938147008908  0.7178547515572077  1.0000
  C   C3        1.0  0.4021963047976022  0.08841746081651858  0.132111477731134  1.0000
  C   C4        1.0  0.8406118144778407  0.30051758048570615  0.09553061449395264  1.0000
  C   C5        1.0  0.6052622264207974  0.2104817659117825  0.8439222780778823  1.0000
  C   C6        1.0  0.12205503910534114  0.7850475800508792  0.8314233192593259  1.0000
  C   C7        1.0  0.01869926075861983  0.17174482670605906  0.7016249979607806  1.0000
  C   C8        1.0  0.43591280399347265  0.28623856434242523  0.34353024051419423  1.0000
  C   C9        1.0  0.6824885176438972  0.7722058433577124  0.9242505748154184  1.0000
  C   C10       1.0  0.017339016360635933  0.649538150947202  0.4374410575385029  1.0000
  I   I1        1.0  0.4985099199244526  0.9805336049199705  0.6145764225335638  1.0000
  I   I2        1.0  0.7948545062048922  0.09000220789717417  0.34585561281697164  1.0000
  O   O1        1.0  0.7787360240175667  0.5966442943191759  0.6473610913395071  1.0000
  O   O2        1.0  0.1263901139246335  0.20429698895767734  0.6175115632300933  1.0000
  O   O3        1.0  0.17843171941133484  0.7263603802969236  0.3938441371909916  1.0000
  O   O4        1.0  0.13577478253346426  0.6185798758306573  0.807623692298178  1.0000
  O   O5        1.0  0.3549852181666818  0.5873803511878044  0.12086765403324834  1.0000
  O   O6        1.0  0.27513523716438354  0.21551602698194694  0.4001626200696341  1.0000
  O   O7        1.0  0.2283678621590824  0.005721952010277898  0.08813945131167154  1.0000
  O   O8        1.0  0.5750734773752975  0.3637697418558576  0.877127892198885  1.0000
  O   O9        1.0  0.703441936873633  0.6724059790173723  0.007386624165503619  1.0000
  O   O10       1.0  0.9100022918027278  0.23110643971927347  0.01599027066359983  1.0000
data_image85
_chemical_formula_structural       Re2C10I2O10
_chemical_formula_sum              "Re2 C10 I2 O10"
_cell_length_a       6.7806348447214
_cell_length_b       6.7806348447214
_cell_length_c       10.993743
_cell_angle_alpha    90.0
_cell_angle_beta     90.0
_cell_angle_gamma    110.32517840843863

_space_group_name_H-M_alt    "P 1"
_space_group_IT_number       1

loop_
  _space_group_symop_operation_xyz
  'x, y, z'

loop_
  _atom_site_type_symbol
  _atom_site_label
  _atom_site_symmetry_multiplicity
  _atom_site_fract_x
  _atom_site_fract_y
  _atom_site_fract_z
  _atom_site_occupancy
  Re  Re1       1.0  0.7107622242596178  0.9441520195711987  0.7861799037947579  1.0000
  Re  Re2       1.0  0.6086691084035072  0.3052678121401506  0.23269477083904638  1.0000
  C   C1        1.0  0.46193727124898715  0.4933277918125911  0.19473279021109588  1.0000
  C   C2        1.0  0.6893204749154379  0.7419128503926042  0.6550318367509985  1.0000
  C   C3        1.0  0.41483776101608166  0.050807057261765244  0.15342699347749322  1.0000
  C   C4        1.0  0.8695534992707015  0.4119349317589314  0.10594785611096066  1.0000
  C   C5        1.0  0.5911175907477519  0.16115485674755345  0.835631209084195  1.0000
  C   C6        1.0  0.0013040971347758681  0.7551484172047186  0.8984295267425558  1.0000
  C   C7        1.0  0.0016908356237017585  0.07575207116362193  0.7390164112567078  1.0000
  C   C8        1.0  0.4043458413911593  0.2485597781628872  0.37467083813628577  1.0000
  C   C9        1.0  0.7221814595682806  0.8891118469992221  0.9633075580523249  1.0000
  C   C10       1.0  0.0726987463611448  0.6530775028527802  0.3787021259791586  1.0000
  I   I1        1.0  0.506341295479946  0.04409802692408582  0.5746056725684845  1.0000
  I   I2        1.0  0.7827762264431234  0.06524333148115358  0.34269986735210356  1.0000
  O   O1        1.0  0.6622525586673014  0.5783299802644841  0.6133031438004432  1.0000
  O   O2        1.0  0.05957394146132833  0.08469886987476216  0.6423444349804901  1.0000
  O   O3        1.0  0.12728114362859716  0.5448725388785216  0.43715052450980596  1.0000
  O   O4        1.0  0.12979935100846943  0.7285053143921013  0.839458326069504  1.0000
  O   O5        1.0  0.364816111345836  0.6041845060143876  0.18557077618465612  1.0000
  O   O6        1.0  0.22635286757358444  0.182990497531629  0.4021434157100914  1.0000
  O   O7        1.0  0.3013053148160043  0.9191110932602948  0.08363596454810596  1.0000
  O   O8        1.0  0.49318863246354816  0.26440382319811295  0.869519075248561  1.0000
  O   O9        1.0  0.7517228195057823  0.8991366193229747  0.06477655558101025  1.0000
  O   O10       1.0  0.9553119055739532  0.42032556346181077  0.9970941484442238  1.0000
data_image86
_chemical_formula_structural       Re2C10I2O10
_chemical_formula_sum              "Re2 C10 I2 O10"
_cell_length_a       6.7806348447214
_cell_length_b       6.7806348447214
_cell_length_c       10.993743
_cell_angle_alpha    90.0
_cell_angle_beta     90.0
_cell_angle_gamma    110.32517840843863

_space_group_name_H-M_alt    "P 1"
_space_group_IT_number       1

loop_
  _space_group_symop_operation_xyz
  'x, y, z'

loop_
  _atom_site_type_symbol
  _atom_site_label
  _atom_site_symmetry_multiplicity
  _atom_site_fract_x
  _atom_site_fract_y
  _atom_site_fract_z
  _atom_site_occupancy
  Re  Re1       1.0  0.707397042733379  0.9035943744977037  0.7802126276561464  1.0000
  Re  Re2       1.0  0.6062723299281407  0.32046973088937525  0.234799365127602  1.0000
  C   C1        1.0  0.4364336185712316  0.5279803525851905  0.2034233282321498  1.0000
  C   C2        1.0  0.5154946788869655  0.671853143018266  0.6826447970831284  1.0000
  C   C3        1.0  0.41999055598478396  0.057954498838775875  0.1738524330462475  1.0000
  C   C4        1.0  0.8714574698368938  0.45238837683972194  0.13403413119384416  1.0000
  C   C5        1.0  0.5641907450408266  0.07319113825048149  0.8300927230675414  1.0000
  C   C6        1.0  0.035810112061217855  0.7737076041706613  0.8427361472986958  1.0000
  C   C7        1.0  0.03136871627980975  0.11103540676948698  0.7658593265536736  1.0000
  C   C8        1.0  0.38056336237964344  0.2297189750144515  0.38078903216551796  1.0000
  C   C9        1.0  0.6723701576737835  0.826053881536468  0.9556215199115788  1.0000
  C   C10       1.0  0.9787444921673967  0.6244227816771091  0.32840053902044053  1.0000
  I   I1        1.0  0.5763567662433589  0.08643504246910583  0.5751394856697878  1.0000
  I   I2        1.0  0.7959326965942896  0.06693844067235644  0.3194914064313617  1.0000
  O   O1        1.0  0.44173786222423106  0.5071342339628966  0.6282823243701986  1.0000
  O   O2        1.0  0.12008905489850763  0.1995199152852969  0.6869428960156679  1.0000
  O   O3        1.0  0.1085001156702592  0.6615314221795379  0.4080672829942363  1.0000
  O   O4        1.0  0.16355660491095048  0.7039724138302913  0.8611213960063402  1.0000
  O   O5        1.0  0.2970736576054619  0.5976804816236547  0.21539402685728148  1.0000
  O   O6        1.0  0.19724563040043191  0.20232269235397982  0.41686928204269635  1.0000
  O   O7        1.0  0.28585139011932903  0.9288957554110235  0.12723036404632937  1.0000
  O   O8        1.0  0.48917278944421505  0.14952963448420672  0.9014721712599504  1.0000
  O   O9        1.0  0.6625082094205337  0.7719619082072389  0.05365999306594471  1.0000
  O   O10       1.0  0.9578655581858103  0.5581906891607941  0.06092496718136696  1.0000
data_image87
_chemical_formula_structural       Re2C10I2O10
_chemical_formula_sum              "Re2 C10 I2 O10"
_cell_length_a       6.7806348447214
_cell_length_b       6.7806348447214
_cell_length_c       10.993743
_cell_angle_alpha    90.0
_cell_angle_beta     90.0
_cell_angle_gamma    110.32517840843863

_space_group_name_H-M_alt    "P 1"
_space_group_IT_number       1

loop_
  _space_group_symop_operation_xyz
  'x, y, z'

loop_
  _atom_site_type_symbol
  _atom_site_label
  _atom_site_symmetry_multiplicity
  _atom_site_fract_x
  _atom_site_fract_y
  _atom_site_fract_z
  _atom_site_occupancy
  Re  Re1       1.0  0.6825654312340356  0.8902068073938743  0.7730244905548446  1.0000
  Re  Re2       1.0  0.5624224909379382  0.27373840165927793  0.24506424817426803  1.0000
  C   C1        1.0  0.4506464279141934  0.48182930310274497  0.21860042081145006  1.0000
  C   C2        1.0  0.4781268758900173  0.649859573091002  0.7288792260629118  1.0000
  C   C3        1.0  0.37256960421069735  0.13735206590521495  0.10686152446921458  1.0000
  C   C4        1.0  0.8772242487059108  0.44186693789060927  0.19510683756350075  1.0000
  C   C5        1.0  0.6271270923175116  0.16468897663476373  0.8439983531542136  1.0000
  C   C6        1.0  0.011971733229520078  0.7563275820066863  0.6934428719553838  1.0000
  C   C7        1.0  0.96760910300232  0.12730100614180562  0.8281596972677442  1.0000
  C   C8        1.0  0.5389683601152637  0.3478057476347731  0.41012269456876677  1.0000
  C   C9        1.0  0.6965545238291901  0.7420086498981575  0.9198584888980721  1.0000
  C   C10       1.0  0.9603118761345439  0.7782014087987439  0.4044943510104863  1.0000
  I   I1        1.0  0.6084809577267568  0.05810947296748603  0.59385600138743  1.0000
  I   I2        1.0  0.8193485068871411  0.08397401446278963  0.2968514521399991  1.0000
  O   O1        1.0  0.37479726634267013  0.5253340998040035  0.6646142835905907  1.0000
  O   O2        1.0  0.11830206871370619  0.26795255376414473  0.8194330604623781  1.0000
  O   O3        1.0  0.13536445009692197  0.8317615261526203  0.3909232833879084  1.0000
  O   O4        1.0  0.0933961462518604  0.6666786507797836  0.7508920525360411  1.0000
  O   O5        1.0  0.3711390537146659  0.6045969070791921  0.1897931140740992  1.0000
  O   O6        1.0  0.4150652907987327  0.32200285174406407  0.4924594603283102  1.0000
  O   O7        1.0  0.2633096513871724  0.05130274450416628  0.025203219652990334  1.0000
  O   O8        1.0  0.6199275790432477  0.338118470994342  0.8508141484538422  1.0000
  O   O9        1.0  0.6759563172192468  0.695099221483117  0.019152069718582965  1.0000
  O   O10       1.0  0.9600025640916523  0.5448895694819657  0.11811601539874664  1.0000
data_image88
_chemical_formula_structural       Re2C10I2O10
_chemical_formula_sum              "Re2 C10 I2 O10"
_cell_length_a       6.7806348447214
_cell_length_b       6.7806348447214
_cell_length_c       10.993743
_cell_angle_alpha    90.0
_cell_angle_beta     90.0
_cell_angle_gamma    110.32517840843863

_space_group_name_H-M_alt    "P 1"
_space_group_IT_number       1

loop_
  _space_group_symop_operation_xyz
  'x, y, z'

loop_
  _atom_site_type_symbol
  _atom_site_label
  _atom_site_symmetry_multiplicity
  _atom_site_fract_x
  _atom_site_fract_y
  _atom_site_fract_z
  _atom_site_occupancy
  Re  Re1       1.0  0.7066002142435784  0.8934614447171831  0.8022814600936349  1.0000
  Re  Re2       1.0  0.5553029934233831  0.2636045678271441  0.21256601343655185  1.0000
  C   C1        1.0  0.44635229918368147  0.5246839258248346  0.19065964452825604  1.0000
  C   C2        1.0  0.46818713473672924  0.6094047400377218  0.7790174218688999  1.0000
  C   C3        1.0  0.3338163635331375  0.04346210021315612  0.10442095190728161  1.0000
  C   C4        1.0  0.8349350754002463  0.4843807441578143  0.20012069198279023  1.0000
  C   C5        1.0  0.6136205894873743  0.16441399138746174  0.8669924555738009  1.0000
  C   C6        1.0  0.8645527882013977  0.7381958747225184  0.7121193238994714  1.0000
  C   C7        1.0  0.9360271289509539  0.12836673258052334  0.905435856825972  1.0000
  C   C8        1.0  0.5512271396766719  0.4002093948621439  0.3723280412119649  1.0000
  C   C9        1.0  0.7023903863407758  0.7056101298025679  0.9437521832670206  1.0000
  C   C10       1.0  0.0504266392430457  0.8527566622201679  0.4336849674144262  1.0000
  I   I1        1.0  0.5341533790856163  0.00778962337568756  0.5667739099858069  1.0000
  I   I2        1.0  0.8833020479246991  0.12793838831383775  0.2925690897130061  1.0000
  O   O1        1.0  0.34844640948844363  0.4669050498767596  0.7368611397671053  1.0000
  O   O2        1.0  0.04815973320033784  0.27497613610791327  0.9595741727042021  1.0000
  O   O3        1.0  0.13918061854656488  0.7354898221039874  0.4051706677412151  1.0000
  O   O4        1.0  0.0091793718121845  0.8140948306885462  0.6530327377975191  1.0000
  O   O5        1.0  0.3679799293161791  0.6555245964985141  0.16825030664906437  1.0000
  O   O6        1.0  0.4925979065541166  0.4830531649036005  0.4539218268628457  1.0000
  O   O7        1.0  0.307314444988525  0.9408077657661463  0.007995539920641406  1.0000
  O   O8        1.0  0.6579181456415413  0.3387490464132337  0.8782361629119043  1.0000
  O   O9        1.0  0.6998346859844415  0.6627309907429033  0.046824068554763176  1.0000
  O   O10       1.0  0.99035223202604  0.6085698124651097  0.183888304282153  1.0000
data_image89
_chemical_formula_structural       Re2C10I2O10
_chemical_formula_sum              "Re2 C10 I2 O10"
_cell_length_a       6.7806348447214
_cell_length_b       6.7806348447214
_cell_length_c       10.993743
_cell_angle_alpha    90.0
_cell_angle_beta     90.0
_cell_angle_gamma    110.32517840843863

_space_group_name_H-M_alt    "P 1"
_space_group_IT_number       1

loop_
  _space_group_symop_operation_xyz
  'x, y, z'

loop_
  _atom_site_type_symbol
  _atom_site_label
  _atom_site_symmetry_multiplicity
  _atom_site_fract_x
  _atom_site_fract_y
  _atom_site_fract_z
  _atom_site_occupancy
  Re  Re1       1.0  0.7275066811711774  0.9342666645942587  0.776017954897194  1.0000
  Re  Re2       1.0  0.5594106209145697  0.25827152506341156  0.23082087734011414  1.0000
  C   C1        1.0  0.3935479449098233  0.452787273215034  0.16364320831860127  1.0000
  C   C2        1.0  0.45565481182914513  0.6764740177224469  0.775367630828918  1.0000
  C   C3        1.0  0.3264999733838301  0.004698441258010566  0.15122643618806084  1.0000
  C   C4        1.0  0.8271840960203352  0.4870919699887275  0.2170107200761295  1.0000
  C   C5        1.0  0.62837891847767  0.18692501352447824  0.7480949087973832  1.0000
  C   C6        1.0  0.9339371638879724  0.8094183709068183  0.6658399044561507  1.0000
  C   C7        1.0  0.9328217229577911  0.06182105132972615  0.921234353507332  1.0000
  C   C8        1.0  0.5481385548912043  0.3742414457852261  0.3773122909161154  1.0000
  C   C9        1.0  0.6456139168445519  0.8324715361935509  0.950708901274827  1.0000
  C   C10       1.0  0.21076318748169048  0.8726499080563721  0.3821428799736837  1.0000
  I   I1        1.0  0.5211141388488536  0.9704789898997728  0.5752635462220326  1.0000
  I   I2        1.0  0.8934898770493053  0.11209044080012054  0.2982232261830038  1.0000
  O   O1        1.0  0.2768450169795716  0.5841625077624518  0.7899282052372357  1.0000
  O   O2        1.0  0.04472109895013743  0.16232414447295884  0.9934163919366512  1.0000
  O   O3        1.0  0.10335829295756757  0.7578449100936988  0.45900255810685764  1.0000
  O   O4        1.0  0.10844305576000055  0.8415901466392951  0.677194913518335  1.0000
  O   O5        1.0  0.272040594384259  0.5172266650827619  0.11739225357583319  1.0000
  O   O6        1.0  0.4757703704664366  0.4370109481407498  0.46096813869363373  1.0000
  O   O7        1.0  0.2305588877658462  0.8821255695071916  0.06461911084230351  1.0000
  O   O8        1.0  0.5742286871730473  0.33153702549496505  0.7661842978959608  1.0000
  O   O9        1.0  0.6329680077226444  0.7755028105138779  0.04954232163241401  1.0000
  O   O10       1.0  0.9893811513071034  0.6074287992285029  0.21959293436693725  1.0000
data_image90
_chemical_formula_structural       Re2C10I2O10
_chemical_formula_sum              "Re2 C10 I2 O10"
_cell_length_a       6.7806348447214
_cell_length_b       6.7806348447214
_cell_length_c       10.993743
_cell_angle_alpha    90.0
_cell_angle_beta     90.0
_cell_angle_gamma    110.32517840843863

_space_group_name_H-M_alt    "P 1"
_space_group_IT_number       1

loop_
  _space_group_symop_operation_xyz
  'x, y, z'

loop_
  _atom_site_type_symbol
  _atom_site_label
  _atom_site_symmetry_multiplicity
  _atom_site_fract_x
  _atom_site_fract_y
  _atom_site_fract_z
  _atom_site_occupancy
  Re  Re1       1.0  0.7129980248383999  0.9801091384444961  0.7546371572545773  1.0000
  Re  Re2       1.0  0.5688645187304415  0.24819337708560557  0.26385522081739743  1.0000
  C   C1        1.0  0.41017797029962044  0.4285068042912361  0.23628504879135998  1.0000
  C   C2        1.0  0.4779860919981155  0.68307998347878  0.7601702407313338  1.0000
  C   C3        1.0  0.40831223456287863  0.0380326911841049  0.15034777863668722  1.0000
  C   C4        1.0  0.8150261437966216  0.5035899182124143  0.19074476007291322  1.0000
  C   C5        1.0  0.6711851285241097  0.24736441232537426  0.771039040581423  1.0000
  C   C6        1.0  0.8180284422747315  0.7452672399920263  0.7182966239141375  1.0000
  C   C7        1.0  0.9263249638414024  0.05825476985982836  0.8921934109563777  1.0000
  C   C8        1.0  0.4641951608684399  0.2829032031185963  0.42281573328476757  1.0000
  C   C9        1.0  0.7206435566028193  0.8697529839503122  0.9259142832040996  1.0000
  C   C10       1.0  0.1931461608857471  0.8690073851373097  0.4541363849534885  1.0000
  I   I1        1.0  0.5552429674867162  0.9575370486632134  0.5438970873006259  1.0000
  I   I2        1.0  0.8625351867657841  0.09258515620410412  0.2988996205365362  1.0000
  O   O1        1.0  0.3612625120140506  0.547016711889609  0.8107426863253537  1.0000
  O   O2        1.0  0.10592112113448726  0.18589816870030806  0.9329515237979631  1.0000
  O   O3        1.0  0.03982482313366604  0.7609232419322121  0.43611912215047904  1.0000
  O   O4        1.0  0.9304859595906665  0.6545568343670665  0.7080778981808773  1.0000
  O   O5        1.0  0.3237655626916456  0.5363895146730304  0.20551345432786722  1.0000
  O   O6        1.0  0.39884838046191873  0.35302828445519174  0.5112889364169885  1.0000
  O   O7        1.0  0.3534549677391436  0.9412533993516529  0.06277689262763321  1.0000
  O   O8        1.0  0.6086963696335281  0.38898417378508393  0.7561035380255364  1.0000
  O   O9        1.0  0.6873770868575305  0.7596588524233786  0.018914465500541988  1.0000
  O   O10       1.0  0.9263629741778504  0.6411454499001845  0.13741714263469654  1.0000
data_image91
_chemical_formula_structural       Re2C10I2O10
_chemical_formula_sum              "Re2 C10 I2 O10"
_cell_length_a       6.7806348447214
_cell_length_b       6.7806348447214
_cell_length_c       10.993743
_cell_angle_alpha    90.0
_cell_angle_beta     90.0
_cell_angle_gamma    110.32517840843863

_space_group_name_H-M_alt    "P 1"
_space_group_IT_number       1

loop_
  _space_group_symop_operation_xyz
  'x, y, z'

loop_
  _atom_site_type_symbol
  _atom_site_label
  _atom_site_symmetry_multiplicity
  _atom_site_fract_x
  _atom_site_fract_y
  _atom_site_fract_z
  _atom_site_occupancy
  Re  Re1       1.0  0.7272496420425676  0.9580073875511633  0.7603287078290805  1.0000
  Re  Re2       1.0  0.5626302105567113  0.2748553558583281  0.26646267875609775  1.0000
  C   C1        1.0  0.43647687792471507  0.5324295057367612  0.23597064722527517  1.0000
  C   C2        1.0  0.43590774573053176  0.8233318597232812  0.7893482329767331  1.0000
  C   C3        1.0  0.4742374221815397  0.04245024189916514  0.14073166542314544  1.0000
  C   C4        1.0  0.7915369720223753  0.4338030217214652  0.17599273160881962  1.0000
  C   C5        1.0  0.5498471601510457  0.12449024178857455  0.8149245688958966  1.0000
  C   C6        1.0  0.8351657945505103  0.7414001886195201  0.7368246855658727  1.0000
  C   C7        1.0  0.027996316705421798  0.20610917958352193  0.8540168552939383  1.0000
  C   C8        1.0  0.45145768585033924  0.3097933032259934  0.4433763789054044  1.0000
  C   C9        1.0  0.729080049262878  0.8593420112066218  0.9242375923266889  1.0000
  C   C10       1.0  0.1524662098322143  0.8690519833879733  0.4841520848174576  1.0000
  I   I1        1.0  0.562397735442447  0.9450777865302348  0.5113100260055305  1.0000
  I   I2        1.0  0.8369894400510351  0.050767799661465274  0.29623425600245396  1.0000
  O   O1        1.0  0.25044816077253407  0.737160230181367  0.8090011841558856  1.0000
  O   O2        1.0  0.15835847518432988  0.26702424797486435  0.934631217377356  1.0000
  O   O3        1.0  0.1292677151483377  0.8323929586314578  0.3855660498888237  1.0000
  O   O4        1.0  0.9401569345349625  0.6525515477877502  0.700082486322913  1.0000
  O   O5        1.0  0.4028165166266193  0.6602026727080097  0.30235620322390355  1.0000
  O   O6        1.0  0.42728603276146243  0.3832926261354639  0.5258252891802295  1.0000
  O   O7        1.0  0.44554962895772116  0.9317668424873056  0.04864242048728138  1.0000
  O   O8        1.0  0.39944484885294007  0.20440134311011426  0.8166074544478729  1.0000
  O   O9        1.0  0.709569336046266  0.777848515864647  0.020803249752650688  1.0000
  O   O10       1.0  0.9603255398747288  0.5412553639761967  0.16101150947003628  1.0000
data_image92
_chemical_formula_structural       Re2C10I2O10
_chemical_formula_sum              "Re2 C10 I2 O10"
_cell_length_a       6.7806348447214
_cell_length_b       6.7806348447214
_cell_length_c       10.993743
_cell_angle_alpha    90.0
_cell_angle_beta     90.0
_cell_angle_gamma    110.32517840843863

_space_group_name_H-M_alt    "P 1"
_space_group_IT_number       1

loop_
  _space_group_symop_operation_xyz
  'x, y, z'

loop_
  _atom_site_type_symbol
  _atom_site_label
  _atom_site_symmetry_multiplicity
  _atom_site_fract_x
  _atom_site_fract_y
  _atom_site_fract_z
  _atom_site_occupancy
  Re  Re1       1.0  0.7046792631569487  0.910756112878403  0.7698651729039886  1.0000
  Re  Re2       1.0  0.5586319820687737  0.2822947133445643  0.2776689329219374  1.0000
  C   C1        1.0  0.40351676514874735  0.46621348655878436  0.24281454313627038  1.0000
  C   C2        1.0  0.43096010679384444  0.7655026139987673  0.8403445070309958  1.0000
  C   C3        1.0  0.4697321101362393  0.1616750355956285  0.12852280853850942  1.0000
  C   C4        1.0  0.7895338843344142  0.4882334987798871  0.17214598582860327  1.0000
  C   C5        1.0  0.5334334789684771  0.10065076336546573  0.7937419637395418  1.0000
  C   C6        1.0  0.8605926881539099  0.737383359645723  0.637486581433268  1.0000
  C   C7        1.0  0.9073777262063978  0.22563937051013938  0.8733653078570871  1.0000
  C   C8        1.0  0.49119743112381  0.3568542473664995  0.4525994224303817  1.0000
  C   C9        1.0  0.7960035825096594  0.8894075325916039  0.9368511661865134  1.0000
  C   C10       1.0  0.20174062444911448  0.9557154086419426  0.32009105402459026  1.0000
  I   I1        1.0  0.6370546239828042  0.9299665984141099  0.5354494038555357  1.0000
  I   I2        1.0  0.8250948123347072  0.06867978364910665  0.27870455455357124  1.0000
  O   O1        1.0  0.26634542926519134  0.6452521429099254  0.8540277281107057  1.0000
  O   O2        1.0  0.9403213027143194  0.3735988411236535  0.9390025028617872  1.0000
  O   O3        1.0  0.11906189607834215  0.916105680034417  0.41649851452138187  1.0000
  O   O4        1.0  0.9641948231878797  0.6559462021733906  0.5871689061790254  1.0000
  O   O5        1.0  0.3727441112232774  0.5972548308675039  0.18706148572195622  1.0000
  O   O6        1.0  0.45578507620076186  0.4074672251357796  0.5483407284619823  1.0000
  O   O7        1.0  0.3818970950711139  0.06557264515251227  0.040886185966948436  1.0000
  O   O8        1.0  0.44425282373006136  0.2205140481108794  0.7979874336295663  1.0000
  O   O9        1.0  0.7171982486252303  0.8142820307019182  0.03109530293999052  1.0000
  O   O10       1.0  0.9560132521997212  0.5692421759763041  0.1615118723552709  1.0000
data_image93
_chemical_formula_structural       Re2C10I2O10
_chemical_formula_sum              "Re2 C10 I2 O10"
_cell_length_a       6.7806348447214
_cell_length_b       6.7806348447214
_cell_length_c       10.993743
_cell_angle_alpha    90.0
_cell_angle_beta     90.0
_cell_angle_gamma    110.32517840843863

_space_group_name_H-M_alt    "P 1"
_space_group_IT_number       1

loop_
  _space_group_symop_operation_xyz
  'x, y, z'

loop_
  _atom_site_type_symbol
  _atom_site_label
  _atom_site_symmetry_multiplicity
  _atom_site_fract_x
  _atom_site_fract_y
  _atom_site_fract_z
  _atom_site_occupancy
  Re  Re1       1.0  0.692723239729744  0.822443723483191  0.7945818151233599  1.0000
  Re  Re2       1.0  0.5423654497861703  0.2977220241904924  0.2726932230487892  1.0000
  C   C1        1.0  0.3923487331010443  0.5230299264339227  0.2614072796337409  1.0000
  C   C2        1.0  0.3821284849155501  0.6524253888632767  0.8286310429889827  1.0000
  C   C3        1.0  0.41842758897714705  0.10264196812960903  0.1312991849660184  1.0000
  C   C4        1.0  0.8269876879467971  0.5655912375832914  0.2547007711654375  1.0000
  C   C5        1.0  0.5580917814061457  0.02105620841908988  0.7523646919725814  1.0000
  C   C6        1.0  0.8710012837064011  0.7127739936754305  0.6977510382326113  1.0000
  C   C7        1.0  0.8018818739088067  0.12742799016993378  0.8854596487424516  1.0000
  C   C8        1.0  0.5233419524496542  0.3629917990851581  0.4455830827492694  1.0000
  C   C9        1.0  0.6441938161223837  0.7826472242823126  0.9544503062464692  1.0000
  C   C10       1.0  0.2644554044429124  0.0759532436403112  0.36255151647695966  1.0000
  I   I1        1.0  0.6712550581390319  0.9942084455307992  0.4915824529869509  1.0000
  I   I2        1.0  0.8892141473997436  0.17300578075941497  0.24576809328797386  1.0000
  O   O1        1.0  0.22747134342354314  0.5119125871180454  0.8283994422110867  1.0000
  O   O2        1.0  0.8248192210471985  0.2846194773849924  0.9525418438560965  1.0000
  O   O3        1.0  0.1623874623688649  0.9935822557394283  0.4388809743404022  1.0000
  O   O4        1.0  0.015070614264522643  0.6694597060703843  0.6567123844481857  1.0000
  O   O5        1.0  0.31154506557524486  0.6349495734857378  0.23062488944850537  1.0000
  O   O6        1.0  0.5352835899835284  0.37709142469388035  0.558192369565186  1.0000
  O   O7        1.0  0.2933661019100709  0.9829270351214453  0.07430000773562716  1.0000
  O   O8        1.0  0.4184272376176108  0.08265361128670136  0.7531665045007503  1.0000
  O   O9        1.0  0.5476265648881115  0.6955686605693489  0.04510398331007126  1.0000
  O   O10       1.0  0.989074596322121  0.7046749752362913  0.2603399741321555  1.0000
data_image94
_chemical_formula_structural       Re2C10I2O10
_chemical_formula_sum              "Re2 C10 I2 O10"
_cell_length_a       6.7806348447214
_cell_length_b       6.7806348447214
_cell_length_c       10.993743
_cell_angle_alpha    90.0
_cell_angle_beta     90.0
_cell_angle_gamma    110.32517840843863

_space_group_name_H-M_alt    "P 1"
_space_group_IT_number       1

loop_
  _space_group_symop_operation_xyz
  'x, y, z'

loop_
  _atom_site_type_symbol
  _atom_site_label
  _atom_site_symmetry_multiplicity
  _atom_site_fract_x
  _atom_site_fract_y
  _atom_site_fract_z
  _atom_site_occupancy
  Re  Re1       1.0  0.6941981993565091  0.8528103958308326  0.793978099169107  1.0000
  Re  Re2       1.0  0.5103485844058318  0.28171081360479794  0.30088874710253877  1.0000
  C   C1        1.0  0.3350583365220653  0.4488181813791816  0.2762332525736043  1.0000
  C   C2        1.0  0.5196729132183444  0.5458668036423411  0.7907426188463665  1.0000
  C   C3        1.0  0.3951517773477144  0.11008057839144425  0.15173812778376972  1.0000
  C   C4        1.0  0.7249721179770336  0.5521818876711517  0.2408732054143839  1.0000
  C   C5        1.0  0.47165031269739055  0.9261342758446571  0.7782300045953361  1.0000
  C   C6        1.0  0.9245326017724981  0.691188513509764  0.7527166642924954  1.0000
  C   C7        1.0  0.7451849979452445  0.13493472142670204  0.8765018469603075  1.0000
  C   C8        1.0  0.5270437437936215  0.48012373093999816  0.4668176775226298  1.0000
  C   C9        1.0  0.689013162410312  0.7094338802886793  0.9550394487107273  1.0000
  C   C10       1.0  0.34335984592731794  0.0926288598131153  0.42660360362171185  1.0000
  I   I1        1.0  0.6786150422494243  0.022780182864132525  0.4598741739405502  1.0000
  I   I2        1.0  0.8919027030020633  0.16318210063932725  0.20825698968336734  1.0000
  O   O1        1.0  0.37972268685546656  0.38236551088001025  0.8115899149587944  1.0000
  O   O2        1.0  0.7955503540780329  0.3250857116533086  0.8815178707400948  1.0000
  O   O3        1.0  0.2651280632697476  0.04532789081180244  0.521402110186608  1.0000
  O   O4        1.0  0.06766827482492327  0.6339193582596512  0.7522770885409618  1.0000
  O   O5        1.0  0.24891437317289752  0.5689392801005977  0.2690585449760183  1.0000
  O   O6        1.0  0.6650426494460127  0.6143872897597515  0.5231025273978388  1.0000
  O   O7        1.0  0.273495327617076  0.9705295229190707  0.09457537192043343  1.0000
  O   O8        1.0  0.33813343736686274  0.9839166538366266  0.7388270354170982  1.0000
  O   O9        1.0  0.7311503615353789  0.5962834779644332  0.025274921816787366  1.0000
  O   O10       1.0  0.8566839070026664  0.684514229186815  0.2852011852614459  1.0000
data_image95
_chemical_formula_structural       Re2C10I2O10
_chemical_formula_sum              "Re2 C10 I2 O10"
_cell_length_a       6.7806348447214
_cell_length_b       6.7806348447214
_cell_length_c       10.993743
_cell_angle_alpha    90.0
_cell_angle_beta     90.0
_cell_angle_gamma    110.32517840843863

_space_group_name_H-M_alt    "P 1"
_space_group_IT_number       1

loop_
  _space_group_symop_operation_xyz
  'x, y, z'

loop_
  _atom_site_type_symbol
  _atom_site_label
  _atom_site_symmetry_multiplicity
  _atom_site_fract_x
  _atom_site_fract_y
  _atom_site_fract_z
  _atom_site_occupancy
  Re  Re1       1.0  0.7189485389942594  0.8800642185026928  0.7802552545201344  1.0000
  Re  Re2       1.0  0.5002900380729304  0.2810977152137252  0.33002270884307366  1.0000
  C   C1        1.0  0.320451587169444  0.4645138076646107  0.29642180738239876  1.0000
  C   C2        1.0  0.5045633111530315  0.6125195992716288  0.8364789300110322  1.0000
  C   C3        1.0  0.3953545131111938  0.0933319165973706  0.2091498827559885  1.0000
  C   C4        1.0  0.7286735020801098  0.5361681307116903  0.2540736216878251  1.0000
  C   C5        1.0  0.459134952318917  0.9650246621792731  0.7572634931322597  1.0000
  C   C6        1.0  0.8976179271796018  0.6829032557001233  0.6640371895781911  1.0000
  C   C7        1.0  0.6963134656381014  0.11134162855065366  0.9076616109971302  1.0000
  C   C8        1.0  0.46339982136271873  0.3806125322401317  0.5084366380172171  1.0000
  C   C9        1.0  0.9246937707073332  0.8563097115138878  0.900745196695854  1.0000
  C   C10       1.0  0.16322535633559654  0.01652152315395483  0.39133106136785173  1.0000
  I   I1        1.0  0.7340551689773478  0.0367545428628524  0.4548601075123784  1.0000
  I   I2        1.0  0.8382371088024998  0.09398696935183781  0.1972591163717335  1.0000
  O   O1        1.0  0.3272890681696989  0.5015260558356696  0.8523841119144374  1.0000
  O   O2        1.0  0.7336793628868234  0.273543976737848  0.9461687714236929  1.0000
  O   O3        1.0  0.13061684977497312  0.9566763376448617  0.4908967959151636  1.0000
  O   O4        1.0  0.005792110258590905  0.586328919345815  0.6449955740215847  1.0000
  O   O5        1.0  0.23322686048454028  0.5736598846565546  0.25526102152195196  1.0000
  O   O6        1.0  0.5104925719851936  0.4591064872436077  0.6016466699322836  1.0000
  O   O7        1.0  0.3335891815924673  0.9439812244600998  0.14667750545067426  1.0000
  O   O8        1.0  0.35288920690068015  0.05121495815844401  0.7183977120487762  1.0000
  O   O9        1.0  0.02855908155623177  0.9364071210323258  0.9724527312118939  1.0000
  O   O10       1.0  0.8878880955926711  0.6508928461404186  0.20903711391251836  1.0000
data_image96
_chemical_formula_structural       Re2C10I2O10
_chemical_formula_sum              "Re2 C10 I2 O10"
_cell_length_a       6.7806348447214
_cell_length_b       6.7806348447214
_cell_length_c       10.993743
_cell_angle_alpha    90.0
_cell_angle_beta     90.0
_cell_angle_gamma    110.32517840843863

_space_group_name_H-M_alt    "P 1"
_space_group_IT_number       1

loop_
  _space_group_symop_operation_xyz
  'x, y, z'

loop_
  _atom_site_type_symbol
  _atom_site_label
  _atom_site_symmetry_multiplicity
  _atom_site_fract_x
  _atom_site_fract_y
  _atom_site_fract_z
  _atom_site_occupancy
  Re  Re1       1.0  0.7312918797852583  0.9230866315065179  0.7626745786284752  1.0000
  Re  Re2       1.0  0.49569285475730485  0.30190068712442214  0.3297133543457524  1.0000
  C   C1        1.0  0.3023551999208014  0.4301617747851789  0.2754071572261919  1.0000
  C   C2        1.0  0.5180841125805783  0.731826931793198  0.8639101119585605  1.0000
  C   C3        1.0  0.40641251586425114  0.07529659939831186  0.1979986733481805  1.0000
  C   C4        1.0  0.7132957620993785  0.4744394507975291  0.2164798533663028  1.0000
  C   C5        1.0  0.46816844411908476  0.9755384722469476  0.7319166268971296  1.0000
  C   C6        1.0  0.8128952281808466  0.6710306670282111  0.7022932677351558  1.0000
  C   C7        1.0  0.7587429418202891  0.16414753615183342  0.8767752090039137  1.0000
  C   C8        1.0  0.45287463941307476  0.32039388479116004  0.5160486349000731  1.0000
  C   C9        1.0  0.9487236422490469  0.9392877136588913  0.8982118530504526  1.0000
  C   C10       1.0  0.30911695146427637  0.06185702115129876  0.3913486015646735  1.0000
  I   I1        1.0  0.7190994881733597  0.003417830369429664  0.4637020490627117  1.0000
  I   I2        1.0  0.8381130479806789  0.03236924459940671  0.21759415450475028  1.0000
  O   O1        1.0  0.36761231747709705  0.6939581847137715  0.9215643131766986  1.0000
  O   O2        1.0  0.786897008087027  0.3049823876220705  0.9366517858188468  1.0000
  O   O3        1.0  0.17197352022538845  0.8973652548287394  0.4155337799834486  1.0000
  O   O4        1.0  0.8844437191987395  0.5306364235713809  0.7104094889198093  1.0000
  O   O5        1.0  0.21574775713810246  0.5548544905270405  0.25464948372554663  1.0000
  O   O6        1.0  0.4767184454963453  0.3696154552038968  0.6145247724206387  1.0000
  O   O7        1.0  0.36022207872207485  0.9060372530605423  0.1531704337921497  1.0000
  O   O8        1.0  0.3063008703137431  0.9938046284911254  0.7259296633606429  1.0000
  O   O9        1.0  0.08106148276377945  0.9517064156242722  0.9582756911047653  1.0000
  O   O10       1.0  0.8185372136836111  0.619323771410811  0.17186452527402393  1.0000
data_image97
_chemical_formula_structural       Re2C10I2O10
_chemical_formula_sum              "Re2 C10 I2 O10"
_cell_length_a       6.7806348447214
_cell_length_b       6.7806348447214
_cell_length_c       10.993743
_cell_angle_alpha    90.0
_cell_angle_beta     90.0
_cell_angle_gamma    110.32517840843863

_space_group_name_H-M_alt    "P 1"
_space_group_IT_number       1

loop_
  _space_group_symop_operation_xyz
  'x, y, z'

loop_
  _atom_site_type_symbol
  _atom_site_label
  _atom_site_symmetry_multiplicity
  _atom_site_fract_x
  _atom_site_fract_y
  _atom_site_fract_z
  _atom_site_occupancy
  Re  Re1       1.0  0.6881073327313822  0.9160564506894218  0.767088314693107  1.0000
  Re  Re2       1.0  0.4872804762011452  0.2804152250864297  0.3281065838155884  1.0000
  C   C1        1.0  0.33997537942842665  0.4652153577743785  0.3087034666205155  1.0000
  C   C2        1.0  0.5604703737716564  0.7264430946141377  0.8969028123749345  1.0000
  C   C3        1.0  0.4428214657669  0.16665934273825764  0.15451188066574428  1.0000
  C   C4        1.0  0.7175922939331548  0.459309881649473  0.2116658921661065  1.0000
  C   C5        1.0  0.42166846694337035  0.9172251338123643  0.6746145652311119  1.0000
  C   C6        1.0  0.8463154141721025  0.7329857571825048  0.736483722247674  1.0000
  C   C7        1.0  0.6988420112898275  0.18293557378310177  0.8774409295146524  1.0000
  C   C8        1.0  0.4354362388618497  0.4303866664389506  0.4997998431320608  1.0000
  C   C9        1.0  0.9491096719214713  0.9479103370833233  0.9038564571914126  1.0000
  C   C10       1.0  0.2819747468798988  0.006597714476699323  0.3544457662046277  1.0000
  I   I1        1.0  0.7332812055053759  0.9985946814787635  0.4900894192744553  1.0000
  I   I2        1.0  0.8630071015458693  0.0190142593287993  0.2262240928018864  1.0000
  O   O1        1.0  0.5535439339593372  0.6594637437920021  0.9949135162926287  1.0000
  O   O2        1.0  0.7609665607139047  0.3519396927313474  0.9029942297778317  1.0000
  O   O3        1.0  0.16250270090427735  0.8677555016372387  0.42213795986803493  1.0000
  O   O4        1.0  0.9176154091354844  0.6049171568861665  0.7114093582056701  1.0000
  O   O5        1.0  0.2804678745382913  0.5702528297006022  0.23917532981175965  1.0000
  O   O6        1.0  0.4383868257579531  0.5418948746796024  0.579331630771715  1.0000
  O   O7        1.0  0.44231274991779923  0.13322665986765697  0.04932757969586811  1.0000
  O   O8        1.0  0.2801642127118644  0.9445536752347424  0.6300239004928806  1.0000
  O   O9        1.0  0.10582311894158347  0.9607768397850397  0.9395242996238854  1.0000
  O   O10       1.0  0.8236796705501302  0.536461390140032  0.11990932874632601  1.0000
data_image98
_chemical_formula_structural       Re2C10I2O10
_chemical_formula_sum              "Re2 C10 I2 O10"
_cell_length_a       6.7806348447214
_cell_length_b       6.7806348447214
_cell_length_c       10.993743
_cell_angle_alpha    90.0
_cell_angle_beta     90.0
_cell_angle_gamma    110.32517840843863

_space_group_name_H-M_alt    "P 1"
_space_group_IT_number       1

loop_
  _space_group_symop_operation_xyz
  'x, y, z'

loop_
  _atom_site_type_symbol
  _atom_site_label
  _atom_site_symmetry_multiplicity
  _atom_site_fract_x
  _atom_site_fract_y
  _atom_site_fract_z
  _atom_site_occupancy
  Re  Re1       1.0  0.7303618153130634  0.89351224781447  0.7769533661880568  1.0000
  Re  Re2       1.0  0.44532886759677714  0.27751433962850974  0.31611640745259534  1.0000
  C   C1        1.0  0.28311466343288333  0.46607622650053204  0.2853536615404957  1.0000
  C   C2        1.0  0.6230403944968551  0.7592020413084202  0.9411814568874407  1.0000
  C   C3        1.0  0.38589458868901805  0.20418920152266504  0.15042159382521486  1.0000
  C   C4        1.0  0.7224052571695324  0.4619629155984811  0.338057350680756  1.0000
  C   C5        1.0  0.4288266982340809  0.7725738287848634  0.7172359087422958  1.0000
  C   C6        1.0  0.7622452865999225  0.6375511630741347  0.6658928447423748  1.0000
  C   C7        1.0  0.6689940798660021  0.15782638482017797  0.8043540101133686  1.0000
  C   C8        1.0  0.3171428185147455  0.4217220884686528  0.48074937763456616  1.0000
  C   C9        1.0  0.03412986118132877  0.00672286017838708  0.8293306120756956  1.0000
  C   C10       1.0  0.2474486763835145  0.9681865331440502  0.36835481275132115  1.0000
  I   I1        1.0  0.7493387364100472  0.048000813561082545  0.5311163306990738  1.0000
  I   I2        1.0  0.9456314610716078  0.06894024732028081  0.18654753235059204  1.0000
  O   O1        1.0  0.5222623205270447  0.6770805817767521  0.029565980519160373  1.0000
  O   O2        1.0  0.6747914124956313  0.3013241831104103  0.8551753039784331  1.0000
  O   O3        1.0  0.14295764926730573  0.8801889692600102  0.4551746149912929  1.0000
  O   O4        1.0  0.7103763839020214  0.4692017032874605  0.6334846507173665  1.0000
  O   O5        1.0  0.23525848177427  0.5981080413670363  0.2376742600593077  1.0000
  O   O6        1.0  0.19953529311237664  0.4344751130937323  0.5578435475082597  1.0000
  O   O7        1.0  0.3346561529482919  0.10334673910155036  0.06058636501844376  1.0000
  O   O8        1.0  0.248121741305533  0.7209875193299569  0.6939385577514053  1.0000
  O   O9        1.0  0.20571742925658443  0.044028576214424575  0.8360141675344934  1.0000
  O   O10       1.0  0.8581376547397501  0.5800331100242413  0.2736679203757476  1.0000
data_image99
_chemical_formula_structural       Re2C10I2O10
_chemical_formula_sum              "Re2 C10 I2 O10"
_cell_length_a       6.7806348447214
_cell_length_b       6.7806348447214
_cell_length_c       10.993743
_cell_angle_alpha    90.0
_cell_angle_beta     90.0
_cell_angle_gamma    110.32517840843863

_space_group_name_H-M_alt    "P 1"
_space_group_IT_number       1

loop_
  _space_group_symop_operation_xyz
  'x, y, z'

loop_
  _atom_site_type_symbol
  _atom_site_label
  _atom_site_symmetry_multiplicity
  _atom_site_fract_x
  _atom_site_fract_y
  _atom_site_fract_z
  _atom_site_occupancy
  Re  Re1       1.0  0.7868570303291834  0.8703879612479785  0.7543679049498526  1.0000
  Re  Re2       1.0  0.35824954464329206  0.26637027173497996  0.3194230074891112  1.0000
  C   C1        1.0  0.34330532884003795  0.5246383461816895  0.2409079572527029  1.0000
  C   C2        1.0  0.7121270907931773  0.8034481401425462  0.9145944857976518  1.0000
  C   C3        1.0  0.44773409152511645  0.18042013999069786  0.15381484476631194  1.0000
  C   C4        1.0  0.6686528538841079  0.4990238464539805  0.36958690791106835  1.0000
  C   C5        1.0  0.4505925705446232  0.707294076180863  0.7607677243525801  1.0000
  C   C6        1.0  0.7079327406744025  0.6118557724064223  0.6502450088794874  1.0000
  C   C7        1.0  0.7491725025365568  0.17371968357663903  0.7797067232516092  1.0000
  C   C8        1.0  0.32793204128451675  0.37722141696412326  0.4817042565950206  1.0000
  C   C9        1.0  0.07303771656830582  0.03282188438802858  0.7992436659894259  1.0000
  C   C10       1.0  0.33906882340380984  0.006038697496216994  0.4034202137544317  1.0000
  I   I1        1.0  0.709114917217658  0.05170984847709503  0.5378546955702246  1.0000
  I   I2        1.0  0.9121392869222419  0.09630811139659756  0.19175373182012906  1.0000
  O   O1        1.0  0.6606971269531398  0.7756461036977953  0.008440103646261354  1.0000
  O   O2        1.0  0.8553768722329527  0.30735747838533056  0.8483615725088463  1.0000
  O   O3        1.0  0.2785526413500944  0.8454894297530287  0.4665136035644248  1.0000
  O   O4        1.0  0.6626526491044478  0.43791823207132974  0.622260968372298  1.0000
  O   O5        1.0  0.3165570605808072  0.6757441865494314  0.2492794348371682  1.0000
  O   O6        1.0  0.2501351631799173  0.42315860576131925  0.5672645343592091  1.0000
  O   O7        1.0  0.4312718471533513  0.05479161943706115  0.08010175953761157  1.0000
  O   O8        1.0  0.2649222440183685  0.6258108657020642  0.7609854277009495  1.0000
  O   O9        1.0  0.25536573663220863  0.13266671619230386  0.7780835201982542  1.0000
  O   O10       1.0  0.8119336774399585  0.6405381892525108  0.4036396865597088  1.0000
data_image100
_chemical_formula_structural       Re2C10I2O10
_chemical_formula_sum              "Re2 C10 I2 O10"
_cell_length_a       6.7806348447214
_cell_length_b       6.7806348447214
_cell_length_c       10.993743
_cell_angle_alpha    90.0
_cell_angle_beta     90.0
_cell_angle_gamma    110.32517840843863

_space_group_name_H-M_alt    "P 1"
_space_group_IT_number       1

loop_
  _space_group_symop_operation_xyz
  'x, y, z'

loop_
  _atom_site_type_symbol
  _atom_site_label
  _atom_site_symmetry_multiplicity
  _atom_site_fract_x
  _atom_site_fract_y
  _atom_site_fract_z
  _atom_site_occupancy
  Re  Re1       1.0  0.7892858032625891  0.8992992031681418  0.7580062307655882  1.0000
  Re  Re2       1.0  0.2956433761166609  0.26695866491359593  0.31037509065898017  1.0000
  C   C1        1.0  0.31102239530651193  0.5847923526691334  0.16310717190076196  1.0000
  C   C2        1.0  0.7877339422594769  0.6870386723984284  0.9024519443535248  1.0000
  C   C3        1.0  0.5170684219146578  0.29169122991699986  0.171543257066841  1.0000
  C   C4        1.0  0.5829145264224677  0.4862505400250235  0.3144199969509085  1.0000
  C   C5        1.0  0.4925721066215156  0.7920242435917069  0.7700084542647389  1.0000
  C   C6        1.0  0.7800474695045404  0.6518236385424407  0.6476355120485968  1.0000
  C   C7        1.0  0.8346925143283743  0.23808281429373412  0.7676807450958004  1.0000
  C   C8        1.0  0.3252523631102375  0.3839822775045372  0.4937990408606668  1.0000
  C   C9        1.0  0.1037916767920053  0.002047777851066357  0.7403765167254625  1.0000
  C   C10       1.0  0.2761145492481767  0.009322987056667564  0.37810030381752774  1.0000
  I   I1        1.0  0.6914550601324022  0.9833502402888018  0.5560931972617411  1.0000
  I   I2        1.0  0.9418391682830259  0.07912412746742892  0.24750762855419964  1.0000
  O   O1        1.0  0.729545915605724  0.6066780058678706  0.9964101137592517  1.0000
  O   O2        1.0  0.9876628420345304  0.4003695205356217  0.792056308446171  1.0000
  O   O3        1.0  0.1891903838659158  0.8255875660025456  0.4148192323477565  1.0000
  O   O4        1.0  0.7418382764457802  0.4952203213893959  0.5927552398542294  1.0000
  O   O5        1.0  0.41201084226448625  0.7098868150182567  0.10683969169577312  1.0000
  O   O6        1.0  0.2813207854796008  0.46222196968892093  0.5762521340369663  1.0000
  O   O7        1.0  0.6073310918736422  0.1949767870740409  0.13199671253929252  1.0000
  O   O8        1.0  0.2995898922318885  0.7562023814194558  0.7689682471970299  1.0000
  O   O9        1.0  0.252871487973106  0.054388670729489164  0.6807817477301132  1.0000
  O   O10       1.0  0.7536907601449698  0.5862914369671673  0.34876622377786126  1.0000
data_image101
_chemical_formula_structural       Re2C10I2O10
_chemical_formula_sum              "Re2 C10 I2 O10"
_cell_length_a       6.7806348447214
_cell_length_b       6.7806348447214
_cell_length_c       10.993743
_cell_angle_alpha    90.0
_cell_angle_beta     90.0
_cell_angle_gamma    110.32517840843863

_space_group_name_H-M_alt    "P 1"
_space_group_IT_number       1

loop_
  _space_group_symop_operation_xyz
  'x, y, z'

loop_
  _atom_site_type_symbol
  _atom_site_label
  _atom_site_symmetry_multiplicity
  _atom_site_fract_x
  _atom_site_fract_y
  _atom_site_fract_z
  _atom_site_occupancy
  Re  Re1       1.0  0.844295391830532  0.918982448370356  0.7558650926885454  1.0000
  Re  Re2       1.0  0.300455312885053  0.31050019621369174  0.30730789326940666  1.0000
  C   C1        1.0  0.3396053200811274  0.5692550441031239  0.15480972059282075  1.0000
  C   C2        1.0  0.9338584858039296  0.7896201412660856  0.9231589611941554  1.0000
  C   C3        1.0  0.4448194399821186  0.23356075597691894  0.15861791571898154  1.0000
  C   C4        1.0  0.5839557818254816  0.45335395122461924  0.3391132173515559  1.0000
  C   C5        1.0  0.545761115435575  0.7820574385048125  0.8026592274475319  1.0000
  C   C6        1.0  0.8634567756606677  0.6840820686592284  0.6444098742759782  1.0000
  C   C7        1.0  0.8357987067038757  0.1793018770183068  0.8401714787634026  1.0000
  C   C8        1.0  0.21916752492754232  0.4013057607163997  0.4788196294719609  1.0000
  C   C9        1.0  0.13066948211168117  0.0215087540305956  0.6920781096070274  1.0000
  C   C10       1.0  0.24757604742075115  0.02866194841719727  0.3631445968123067  1.0000
  I   I1        1.0  0.6513030588546437  0.9624609397788941  0.5379556727754977  1.0000
  I   I2        1.0  0.8597414094683858  0.014999514588186713  0.25506179643677457  1.0000
  O   O1        1.0  0.933101706248883  0.7462545380273625  0.022112804594706548  1.0000
  O   O2        1.0  0.9600094483086103  0.3582618187296913  0.8604750534611258  1.0000
  O   O3        1.0  0.19120910850718278  0.8965002442906944  0.4433028357158468  1.0000
  O   O4        1.0  0.8484869416406637  0.5348220810575756  0.5919725551702593  1.0000
  O   O5        1.0  0.3884284547216477  0.6724820440159636  0.07464769159123516  1.0000
  O   O6        1.0  0.21374964594252388  0.5349878873370915  0.540951164141037  1.0000
  O   O7        1.0  0.48366652536390775  0.09867088151634684  0.12837629675864287  1.0000
  O   O8        1.0  0.3732521592380096  0.6710834857369613  0.82867351871389  1.0000
  O   O9        1.0  0.28776294012246684  0.014258552490980403  0.6539211245581384  1.0000
  O   O10       1.0  0.7646884927455431  0.5127561715778602  0.3746333360126838  1.0000
data_image102
_chemical_formula_structural       Re2C10I2O10
_chemical_formula_sum              "Re2 C10 I2 O10"
_cell_length_a       6.7806348447214
_cell_length_b       6.7806348447214
_cell_length_c       10.993743
_cell_angle_alpha    90.0
_cell_angle_beta     90.0
_cell_angle_gamma    110.32517840843863

_space_group_name_H-M_alt    "P 1"
_space_group_IT_number       1

loop_
  _space_group_symop_operation_xyz
  'x, y, z'

loop_
  _atom_site_type_symbol
  _atom_site_label
  _atom_site_symmetry_multiplicity
  _atom_site_fract_x
  _atom_site_fract_y
  _atom_site_fract_z
  _atom_site_occupancy
  Re  Re1       1.0  0.875219193473649  0.8989296925022586  0.7763154700655392  1.0000
  Re  Re2       1.0  0.2871381396523832  0.3237274489187607  0.29059966607828375  1.0000
  C   C1        1.0  0.24019717161409548  0.5618720389551364  0.17991110574976538  1.0000
  C   C2        1.0  0.9928199064535186  0.8769046038388735  0.9220593064573229  1.0000
  C   C3        1.0  0.4073631666400693  0.23530361367690175  0.14722724757100422  1.0000
  C   C4        1.0  0.5886057635612648  0.40559289502875806  0.33767802982478895  1.0000
  C   C5        1.0  0.5760621893827329  0.7648159363019573  0.8027932068728124  1.0000
  C   C6        1.0  0.8711813418533252  0.6197171785202502  0.7095485891583068  1.0000
  C   C7        1.0  0.8625649139479379  0.15931105682631008  0.8637743163625748  1.0000
  C   C8        1.0  0.21318481728321836  0.3896573186578476  0.47145393551420245  1.0000
  C   C9        1.0  0.11956644969241781  0.12020884097777018  0.6940450479196997  1.0000
  C   C10       1.0  0.21872786093239557  0.05276164345787304  0.3406926281356974  1.0000
  I   I1        1.0  0.6766691046204736  0.9475620984965141  0.5293356195581417  1.0000
  I   I2        1.0  0.8105326590218588  0.03477421701825201  0.2503563289316879  1.0000
  O   O1        1.0  0.021979955677404295  0.8482640099895388  0.017711796009885816  1.0000
  O   O2        1.0  0.9784958187239525  0.29911456209473264  0.9291093276963698  1.0000
  O   O3        1.0  0.2514404974309148  0.9208280127904145  0.3738463868584878  1.0000
  O   O4        1.0  0.8328163768643416  0.44859150141617915  0.6722255673690236  1.0000
  O   O5        1.0  0.26864806337477665  0.6469274766863644  0.08925583412313338  1.0000
  O   O6        1.0  0.2315024902546455  0.4942546962072192  0.5493784133752528  1.0000
  O   O7        1.0  0.4145962775007808  0.09192678177265041  0.07387773650242047  1.0000
  O   O8        1.0  0.40100894950787636  0.6322539805729886  0.8069641761151665  1.0000
  O   O9        1.0  0.3059664715854351  0.15874730692682704  0.673943748754617  1.0000
  O   O10       1.0  0.7664009419547425  0.5014480538187029  0.3470689837398638  1.0000
data_image103
_chemical_formula_structural       Re2C10I2O10
_chemical_formula_sum              "Re2 C10 I2 O10"
_cell_length_a       6.7806348447214
_cell_length_b       6.7806348447214
_cell_length_c       10.993743
_cell_angle_alpha    90.0
_cell_angle_beta     90.0
_cell_angle_gamma    110.32517840843863

_space_group_name_H-M_alt    "P 1"
_space_group_IT_number       1

loop_
  _space_group_symop_operation_xyz
  'x, y, z'

loop_
  _atom_site_type_symbol
  _atom_site_label
  _atom_site_symmetry_multiplicity
  _atom_site_fract_x
  _atom_site_fract_y
  _atom_site_fract_z
  _atom_site_occupancy
  Re  Re1       1.0  0.8828878893608025  0.9176158956072035  0.7789428260005364  1.0000
  Re  Re2       1.0  0.27365830104795386  0.29545751582979046  0.26449291578690665  1.0000
  C   C1        1.0  0.3548347023276394  0.6084755088206009  0.17974799472316944  1.0000
  C   C2        1.0  0.8805210093719471  0.7954224312776633  0.9545193205542342  1.0000
  C   C3        1.0  0.3881547240594591  0.29669600132246293  0.08077740783135741  1.0000
  C   C4        1.0  0.5588889941572321  0.4353828417015023  0.3493392630506174  1.0000
  C   C5        1.0  0.6062117608095845  0.675490594373656  0.717796555685801  1.0000
  C   C6        1.0  0.8978789758398094  0.6281760362455303  0.7544576604714082  1.0000
  C   C7        1.0  0.8690795452300122  0.1890798940241023  0.8471588381006412  1.0000
  C   C8        1.0  0.15365416307032367  0.33716083415876774  0.4183716018389634  1.0000
  C   C9        1.0  0.15540444693134092  0.01721973079882666  0.6982511255033466  1.0000
  C   C10       1.0  0.1459716008501573  0.9991491004957975  0.33470877504358765  1.0000
  I   I1        1.0  0.6825886541503408  0.9394508058939639  0.5812591191469848  1.0000
  I   I2        1.0  0.8421064732558055  0.09553959412171675  0.26535337065479025  1.0000
  O   O1        1.0  0.9062716541007915  0.7380999718674324  0.04922080361651382  1.0000
  O   O2        1.0  0.9221730836484547  0.3098685467286437  0.9237637025087503  1.0000
  O   O3        1.0  0.12131321129864849  0.8203445631786797  0.3477372207045535  1.0000
  O   O4        1.0  0.8665263325522152  0.47303343488083677  0.6961283531410908  1.0000
  O   O5        1.0  0.3571258156456957  0.7544053928295973  0.12411898675241663  1.0000
  O   O6        1.0  0.17046369876722414  0.39976180753338064  0.5189519665459242  1.0000
  O   O7        1.0  0.45919105275817285  0.27853278839510676  0.9789874389361064  1.0000
  O   O8        1.0  0.46714480611053233  0.5226841344966379  0.7322602246392408  1.0000
  O   O9        1.0  0.30907249560606287  0.015169000865723703  0.6358499716020001  1.0000
  O   O10       1.0  0.7185804801403675  0.5683447067781122  0.3709350711301526  1.0000
data_image104
_chemical_formula_structural       Re2C10I2O10
_chemical_formula_sum              "Re2 C10 I2 O10"
_cell_length_a       6.7806348447214
_cell_length_b       6.7806348447214
_cell_length_c       10.993743
_cell_angle_alpha    90.0
_cell_angle_beta     90.0
_cell_angle_gamma    110.32517840843863

_space_group_name_H-M_alt    "P 1"
_space_group_IT_number       1

loop_
  _space_group_symop_operation_xyz
  'x, y, z'

loop_
  _atom_site_type_symbol
  _atom_site_label
  _atom_site_symmetry_multiplicity
  _atom_site_fract_x
  _atom_site_fract_y
  _atom_site_fract_z
  _atom_site_occupancy
  Re  Re1       1.0  0.8554147316120486  0.8788484336101161  0.8092663649628471  1.0000
  Re  Re2       1.0  0.28123595004035107  0.30218092501459903  0.24855737279063997  1.0000
  C   C1        1.0  0.4505818966878159  0.565708445921302  0.14367715132173328  1.0000
  C   C2        1.0  0.8473515873611116  0.7260571764900354  0.9686613269986878  1.0000
  C   C3        1.0  0.28009605341097693  0.29317718224986594  0.05786737592704935  1.0000
  C   C4        1.0  0.5412169830070368  0.3813006266633438  0.3571652344376672  1.0000
  C   C5        1.0  0.5422300497649768  0.6872823847574612  0.7842492699400375  1.0000
  C   C6        1.0  0.955598540599711  0.6071616807759438  0.749004444684992  1.0000
  C   C7        1.0  0.8190240687399633  0.11844750339326904  0.8983447746678814  1.0000
  C   C8        1.0  0.20782006224690142  0.3204658619537779  0.4263814743354106  1.0000
  C   C9        1.0  0.11720371766830473  0.021742941540247696  0.7290209147880884  1.0000
  C   C10       1.0  0.20127444930888141  0.9878522401653598  0.26400327952528935  1.0000
  I   I1        1.0  0.726713471622143  0.016451497633488632  0.584500840298094  1.0000
  I   I2        1.0  0.8318553673020326  0.1260986119881602  0.2330255644954871  1.0000
  O   O1        1.0  0.8676958639315894  0.6380724624775143  0.05170388359740419  1.0000
  O   O2        1.0  0.8417041615468879  0.25589771059409916  0.9538008152522777  1.0000
  O   O3        1.0  0.21884398580417452  0.8306361550842347  0.2534539153295192  1.0000
  O   O4        1.0  0.030196483449788345  0.5175862904802789  0.6832272183990334  1.0000
  O   O5        1.0  0.5219907367067933  0.7158885337727703  0.09073087202888334  1.0000
  O   O6        1.0  0.16833113521626872  0.31700673304166394  0.5204567491550669  1.0000
  O   O7        1.0  0.32235797363829055  0.27422921385078075  0.954054418386122  1.0000
  O   O8        1.0  0.3756960629495034  0.6040154552258197  0.7790464203279837  1.0000
  O   O9        1.0  0.27192472525881217  0.011971550961585864  0.6908561288036503  1.0000
  O   O10       1.0  0.6841285651084692  0.4358979426135921  0.42493781170798534  1.0000
data_image105
_chemical_formula_structural       Re2C10I2O10
_chemical_formula_sum              "Re2 C10 I2 O10"
_cell_length_a       6.7806348447214
_cell_length_b       6.7806348447214
_cell_length_c       10.993743
_cell_angle_alpha    90.0
_cell_angle_beta     90.0
_cell_angle_gamma    110.32517840843863

_space_group_name_H-M_alt    "P 1"
_space_group_IT_number       1

loop_
  _space_group_symop_operation_xyz
  'x, y, z'

loop_
  _atom_site_type_symbol
  _atom_site_label
  _atom_site_symmetry_multiplicity
  _atom_site_fract_x
  _atom_site_fract_y
  _atom_site_fract_z
  _atom_site_occupancy
  Re  Re1       1.0  0.8191242788169765  0.8673297803669593  0.8191969711354024  1.0000
  Re  Re2       1.0  0.31573845084711333  0.3219684567447928  0.25553023163977473  1.0000
  C   C1        1.0  0.48409153580521014  0.5387648832829124  0.1582700414585125  1.0000
  C   C2        1.0  0.9095224961785043  0.7331016452469045  0.9500051545135318  1.0000
  C   C3        1.0  0.21877291834470444  0.23749527455433508  0.05496969922740603  1.0000
  C   C4        1.0  0.5611051702436161  0.36198379519238305  0.33241239120433597  1.0000
  C   C5        1.0  0.521037932214125  0.6626837203981399  0.8736211364411118  1.0000
  C   C6        1.0  0.8711008463541088  0.5593540235454298  0.7092173781535607  1.0000
  C   C7        1.0  0.7190190973921418  0.10482713553158862  0.8720889054112756  1.0000
  C   C8        1.0  0.25251537882587455  0.4517022465465508  0.4187556396696005  1.0000
  C   C9        1.0  0.023818641040020072  0.10225584676074018  0.7607634850953382  1.0000
  C   C10       1.0  0.28889860986928223  0.9790277392971694  0.24698026396288167  1.0000
  I   I1        1.0  0.7423960610047449  0.9002688561644476  0.588183788762908  1.0000
  I   I2        1.0  0.8501797956830561  0.19773343016191025  0.2077153913408495  1.0000
  O   O1        1.0  0.02405891322123055  0.65690069078538  0.008618383282049447  1.0000
  O   O2        1.0  0.6721027212273742  0.25769410486003097  0.9144970985107902  1.0000
  O   O3        1.0  0.38469593363826876  0.8889715224501886  0.22519756170152191  1.0000
  O   O4        1.0  0.8011682676423336  0.46064585200939023  0.6307023718091516  1.0000
  O   O5        1.0  0.6329262277795679  0.698737437311016  0.13551173183536355  1.0000
  O   O6        1.0  0.1921676466357088  0.5184356257390788  0.49874422163953086  1.0000
  O   O7        1.0  0.22857143620516318  0.14855506404082142  0.9682561440005198  1.0000
  O   O8        1.0  0.3330951777282283  0.6241897926217175  0.8790714188886625  1.0000
  O   O9        1.0  0.1841492495761614  0.2260496457082941  0.712681340604376  1.0000
  O   O10       1.0  0.6969125698432681  0.36471448291908387  0.40754485747135333  1.0000
data_image106
_chemical_formula_structural       Re2C10I2O10
_chemical_formula_sum              "Re2 C10 I2 O10"
_cell_length_a       6.7806348447214
_cell_length_b       6.7806348447214
_cell_length_c       10.993743
_cell_angle_alpha    90.0
_cell_angle_beta     90.0
_cell_angle_gamma    110.32517840843863

_space_group_name_H-M_alt    "P 1"
_space_group_IT_number       1

loop_
  _space_group_symop_operation_xyz
  'x, y, z'

loop_
  _atom_site_type_symbol
  _atom_site_label
  _atom_site_symmetry_multiplicity
  _atom_site_fract_x
  _atom_site_fract_y
  _atom_site_fract_z
  _atom_site_occupancy
  Re  Re1       1.0  0.8405613016646667  0.8636193832347447  0.8130488155307444  1.0000
  Re  Re2       1.0  0.29260442285563387  0.28306486189240415  0.2519994040664224  1.0000
  C   C1        1.0  0.5016956319547538  0.529145120499708  0.18245229894329038  1.0000
  C   C2        1.0  0.9179447883524459  0.82418713977696  0.0005500754586598156  1.0000
  C   C3        1.0  0.3053517041710684  0.2032929046857405  0.07658902099906965  1.0000
  C   C4        1.0  0.5441610667841604  0.3726063829907762  0.36356200270720834  1.0000
  C   C5        1.0  0.5406582395941173  0.7142502072300441  0.8854035126544322  1.0000
  C   C6        1.0  0.8422677382716898  0.6271761630523799  0.7486387273496575  1.0000
  C   C7        1.0  0.7349476564391533  0.09201320382862144  0.8398018503593393  1.0000
  C   C8        1.0  0.17084737644888215  0.4508757642571164  0.38028006139122406  1.0000
  C   C9        1.0  0.020456052496267363  0.14865813309193965  0.7589803471296921  1.0000
  C   C10       1.0  0.26512263546244685  0.9861283360554165  0.28706096595223757  1.0000
  I   I1        1.0  0.6706955446079763  0.823081437832195  0.5884094769534469  1.0000
  I   I2        1.0  0.9259207371277526  0.28221651389474833  0.1811305635950119  1.0000
  O   O1        1.0  0.04355722537755846  0.7839228553203547  0.07391392906103156  1.0000
  O   O2        1.0  0.6359088229186793  0.19704487969774664  0.8533986174127953  1.0000
  O   O3        1.0  0.32562725016898364  0.8419369285801432  0.29491846564748225  1.0000
  O   O4        1.0  0.8126046794752924  0.5141070547713595  0.6615580462396021  1.0000
  O   O5        1.0  0.6185005192996649  0.7125309347282647  0.17094390337980192  1.0000
  O   O6        1.0  0.07071109732402066  0.5310410182538396  0.4400006740145749  1.0000
  O   O7        1.0  0.3974787705907801  0.222957360280285  0.987307945778983  1.0000
  O   O8        1.0  0.3553682879162714  0.6446200983655511  0.9231120291578763  1.0000
  O   O9        1.0  0.20495884408091491  0.2633360399978022  0.7495153489501644  1.0000
  O   O10       1.0  0.6655884381735614  0.39995375193983684  0.4400826218858794  1.0000
data_image107
_chemical_formula_structural       Re2C10I2O10
_chemical_formula_sum              "Re2 C10 I2 O10"
_cell_length_a       6.7806348447214
_cell_length_b       6.7806348447214
_cell_length_c       10.993743
_cell_angle_alpha    90.0
_cell_angle_beta     90.0
_cell_angle_gamma    110.32517840843863

_space_group_name_H-M_alt    "P 1"
_space_group_IT_number       1

loop_
  _space_group_symop_operation_xyz
  'x, y, z'

loop_
  _atom_site_type_symbol
  _atom_site_label
  _atom_site_symmetry_multiplicity
  _atom_site_fract_x
  _atom_site_fract_y
  _atom_site_fract_z
  _atom_site_occupancy
  Re  Re1       1.0  0.8449390702521272  0.8270981630996519  0.8109952182015725  1.0000
  Re  Re2       1.0  0.287786812277114  0.28410293314446233  0.24726902074628657  1.0000
  C   C1        1.0  0.4046922301096577  0.5968500894190254  0.20671748722416125  1.0000
  C   C2        1.0  0.9406861262329275  0.8701192360445771  0.9776587358874705  1.0000
  C   C3        1.0  0.29215853643871564  0.24349516985476266  0.05999072247730253  1.0000
  C   C4        1.0  0.5029397890378741  0.3172723131417407  0.36575291414259054  1.0000
  C   C5        1.0  0.5243172046460505  0.7249941715478603  0.8623200222451142  1.0000
  C   C6        1.0  0.9601759834641606  0.6103007631684227  0.7722513382290219  1.0000
  C   C7        1.0  0.751109475988023  0.14928264422749304  0.8307385308458042  1.0000
  C   C8        1.0  0.14040652433803888  0.29602139162199115  0.3981425561621401  1.0000
  C   C9        1.0  0.06174499535274003  0.056147284384432616  0.7389780970396049  1.0000
  C   C10       1.0  0.22760635136121546  0.9906046503995254  0.2998248319896039  1.0000
  I   I1        1.0  0.6423482511417589  0.8179177239184581  0.6138622331485155  1.0000
  I   I2        1.0  0.9672833126123237  0.35678575875360374  0.14928905119801944  1.0000
  O   O1        1.0  0.9332277339710422  0.8348669577898691  0.08290629476123268  1.0000
  O   O2        1.0  0.7564599864641994  0.2971366084622231  0.8762731394488216  1.0000
  O   O3        1.0  0.19280442381843887  0.8290730661046044  0.33154591272373213  1.0000
  O   O4        1.0  0.00840909733453474  0.541696197036442  0.6871574263685957  1.0000
  O   O5        1.0  0.4987034003585648  0.7754560505520185  0.1979146359587911  1.0000
  O   O6        1.0  0.05382988160242793  0.22109240629488958  0.4858541905454015  1.0000
  O   O7        1.0  0.3882544552135386  0.3367209847846105  0.9831239071252026  1.0000
  O   O8        1.0  0.3587365840876109  0.7134832623587155  0.9089357491881559  1.0000
  O   O9        1.0  0.2548846185379634  0.13799702795677438  0.7351943564821153  1.0000
  O   O10       1.0  0.629998938207472  0.35914103199510855  0.44682626330283  1.0000
data_image108
_chemical_formula_structural       Re2C10I2O10
_chemical_formula_sum              "Re2 C10 I2 O10"
_cell_length_a       6.7806348447214
_cell_length_b       6.7806348447214
_cell_length_c       10.993743
_cell_angle_alpha    90.0
_cell_angle_beta     90.0
_cell_angle_gamma    110.32517840843863

_space_group_name_H-M_alt    "P 1"
_space_group_IT_number       1

loop_
  _space_group_symop_operation_xyz
  'x, y, z'

loop_
  _atom_site_type_symbol
  _atom_site_label
  _atom_site_symmetry_multiplicity
  _atom_site_fract_x
  _atom_site_fract_y
  _atom_site_fract_z
  _atom_site_occupancy
  Re  Re1       1.0  0.8425200921418429  0.8436171795683276  0.8188600853192656  1.0000
  Re  Re2       1.0  0.3544607802935368  0.3324865537613295  0.22026048860602548  1.0000
  C   C1        1.0  0.4669727633261884  0.625253526530934  0.24890437268365345  1.0000
  C   C2        1.0  0.8962586266023074  0.81786351934867  0.9917358079643473  1.0000
  C   C3        1.0  0.3756562599091483  0.24301023253035078  0.043115339664541244  1.0000
  C   C4        1.0  0.5928490982631911  0.3316654571786826  0.3183412606843176  1.0000
  C   C5        1.0  0.5200095956055473  0.7324558567257012  0.8803373114479107  1.0000
  C   C6        1.0  0.9747744625087159  0.6502491338657614  0.7406997136111816  1.0000
  C   C7        1.0  0.820721106698471  0.14667584458794192  0.8496960036360576  1.0000
  C   C8        1.0  0.19529809847255233  0.2759887339343552  0.37141198148627613  1.0000
  C   C9        1.0  0.09531553089924372  0.03412140030501254  0.7753354703751875  1.0000
  C   C10       1.0  0.19215038689189357  0.014739235026524078  0.2849267872578438  1.0000
  I   I1        1.0  0.5427528244436415  0.747956457243135  0.6228764824450073  1.0000
  I   I2        1.0  0.9385997603276033  0.33191486430988837  0.16522331156380554  1.0000
  O   O1        1.0  0.8782165562295321  0.787513448083102  0.09307794040899453  1.0000
  O   O2        1.0  0.7703959169603802  0.27222807475271615  0.9014112347027967  1.0000
  O   O3        1.0  0.08359844759071607  0.881556824212147  0.3420452712746367  1.0000
  O   O4        1.0  0.9748267008744351  0.5380671730343666  0.6537869634779178  1.0000
  O   O5        1.0  0.5157255870820402  0.790326611364135  0.2921490919563138  1.0000
  O   O6        1.0  0.10597204923904886  0.2851635364589715  0.4540768854380938  1.0000
  O   O7        1.0  0.4503610399638889  0.2832334377723748  0.9485521712939331  1.0000
  O   O8        1.0  0.362657340951708  0.7395039931093227  0.9131502203067  1.0000
  O   O9        1.0  0.24739633115119264  0.15475196118496282  0.7742849987396777  1.0000
  O   O10       1.0  0.7287688993700252  0.3123113032676849  0.39307485850984686  1.0000
data_image109
_chemical_formula_structural       Re2C10I2O10
_chemical_formula_sum              "Re2 C10 I2 O10"
_cell_length_a       6.7806348447214
_cell_length_b       6.7806348447214
_cell_length_c       10.993743
_cell_angle_alpha    90.0
_cell_angle_beta     90.0
_cell_angle_gamma    110.32517840843863

_space_group_name_H-M_alt    "P 1"
_space_group_IT_number       1

loop_
  _space_group_symop_operation_xyz
  'x, y, z'

loop_
  _atom_site_type_symbol
  _atom_site_label
  _atom_site_symmetry_multiplicity
  _atom_site_fract_x
  _atom_site_fract_y
  _atom_site_fract_z
  _atom_site_occupancy
  Re  Re1       1.0  0.8425642224992236  0.8684240120342084  0.8183873156812401  1.0000
  Re  Re2       1.0  0.36599710890344106  0.3264689820105581  0.22384234967797811  1.0000
  C   C1        1.0  0.4923200912631157  0.6333895334217323  0.245273483089395  1.0000
  C   C2        1.0  0.0129661730697328  0.8379276876082067  0.9623289796479585  1.0000
  C   C3        1.0  0.40489502335224864  0.19781349908310814  0.07026449082951022  1.0000
  C   C4        1.0  0.6013010099722738  0.3587707079781636  0.35144311313242155  1.0000
  C   C5        1.0  0.5896687557875933  0.7585224718422948  0.9365607211867454  1.0000
  C   C6        1.0  0.8708860548156194  0.64136641308075  0.7281558555785533  1.0000
  C   C7        1.0  0.9118538350417909  0.19935394958021035  0.8690500549658393  1.0000
  C   C8        1.0  0.2048970878564333  0.3471524063912661  0.35478765167192416  1.0000
  C   C9        1.0  0.09163143328429979  0.035179633444548664  0.7260156336260972  1.0000
  C   C10       1.0  0.2546709975631294  0.019304672591069938  0.27429016157231  1.0000
  I   I1        1.0  0.47422530383987715  0.6811390204591539  0.6108976403817118  1.0000
  I   I2        1.0  0.9175075689838524  0.3596359171841107  0.17524685673281265  1.0000
  O   O1        1.0  0.1454383843228062  0.8668570412091327  0.03942130423232992  1.0000
  O   O2        1.0  0.8999696905878769  0.3450444434320741  0.9063630688456253  1.0000
  O   O3        1.0  0.17590650426729287  0.8457202468278628  0.2936923623778908  1.0000
  O   O4        1.0  0.7908049561920283  0.4995570198918613  0.649974275947336  1.0000
  O   O5        1.0  0.5300586856619356  0.7771628240960582  0.31675823987992135  1.0000
  O   O6        1.0  0.09969913302796625  0.3368863896432044  0.44061350958179724  1.0000
  O   O7        1.0  0.44820291119715605  0.1523885982400129  0.9729316870340834  1.0000
  O   O8        1.0  0.4367904478989437  0.6776850077459203  0.9900259245674795  1.0000
  O   O9        1.0  0.23255717654873242  0.15836490152201055  0.6935924298793812  1.0000
  O   O10       1.0  0.715865226454317  0.3687149757256006  0.42173611366838604  1.0000
data_image110
_chemical_formula_structural       Re2C10I2O10
_chemical_formula_sum              "Re2 C10 I2 O10"
_cell_length_a       6.7806348447214
_cell_length_b       6.7806348447214
_cell_length_c       10.993743
_cell_angle_alpha    90.0
_cell_angle_beta     90.0
_cell_angle_gamma    110.32517840843863

_space_group_name_H-M_alt    "P 1"
_space_group_IT_number       1

loop_
  _space_group_symop_operation_xyz
  'x, y, z'

loop_
  _atom_site_type_symbol
  _atom_site_label
  _atom_site_symmetry_multiplicity
  _atom_site_fract_x
  _atom_site_fract_y
  _atom_site_fract_z
  _atom_site_occupancy
  Re  Re1       1.0  0.8259788211681393  0.8956604177409414  0.7952185515243273  1.0000
  Re  Re2       1.0  0.37112089203721166  0.33404336716640093  0.23650687377170518  1.0000
  C   C1        1.0  0.5241414960765516  0.6544213032822623  0.26346537574280826  1.0000
  C   C2        1.0  0.02907891439872312  0.9013383369058795  0.9267318314553954  1.0000
  C   C3        1.0  0.521169262978132  0.3611474929638164  0.06257209415753065  1.0000
  C   C4        1.0  0.5394987479765411  0.2985487317837245  0.3845437816309543  1.0000
  C   C5        1.0  0.696052646130102  0.8846614770042954  0.9507799994931073  1.0000
  C   C6        1.0  0.8550750608564974  0.6382311082198939  0.7168818593084059  1.0000
  C   C7        1.0  0.8696936150535459  0.1853325252121767  0.842101192852154  1.0000
  C   C8        1.0  0.20744473244217818  0.2993194771531056  0.37793617080579234  1.0000
  C   C9        1.0  0.10280208750697484  0.014807973317417567  0.6937147331432477  1.0000
  C   C10       1.0  0.14744904948123314  0.061482602306134115  0.23862819929892484  1.0000
  I   I1        1.0  0.4572880443792998  0.6777560382701315  0.6337725224102021  1.0000
  I   I2        1.0  0.9141594265482077  0.24088683974174685  0.17426268978221726  1.0000
  O   O1        1.0  0.11548774468218137  0.9097607903483926  0.020050999658477897  1.0000
  O   O2        1.0  0.9413805291832722  0.34589281130602845  0.8857890356693429  1.0000
  O   O3        1.0  0.08142974338508527  0.8910215535247668  0.2820437301026394  1.0000
  O   O4        1.0  0.8247922726546545  0.49110292235753256  0.6628359258493043  1.0000
  O   O5        1.0  0.6182775039494667  0.8223954073231496  0.30809723879054707  1.0000
  O   O6        1.0  0.10112937507556617  0.31090361844971515  0.4626932506520268  1.0000
  O   O7        1.0  0.6033932006946114  0.3966187606175211  0.9722406917301905  1.0000
  O   O8        1.0  0.6030103521411874  0.8495396552900205  0.03842633789579697  1.0000
  O   O9        1.0  0.20861284313728157  0.10774333297897831  0.6209167148311062  1.0000
  O   O10       1.0  0.6326452655855774  0.26324072811094806  0.45397261325141014  1.0000
data_image111
_chemical_formula_structural       Re2C10I2O10
_chemical_formula_sum              "Re2 C10 I2 O10"
_cell_length_a       6.7806348447214
_cell_length_b       6.7806348447214
_cell_length_c       10.993743
_cell_angle_alpha    90.0
_cell_angle_beta     90.0
_cell_angle_gamma    110.32517840843863

_space_group_name_H-M_alt    "P 1"
_space_group_IT_number       1

loop_
  _space_group_symop_operation_xyz
  'x, y, z'

loop_
  _atom_site_type_symbol
  _atom_site_label
  _atom_site_symmetry_multiplicity
  _atom_site_fract_x
  _atom_site_fract_y
  _atom_site_fract_z
  _atom_site_occupancy
  Re  Re1       1.0  0.9174201494287674  0.9512303198551112  0.7793361723012017  1.0000
  Re  Re2       1.0  0.32702913813018397  0.30688035284931636  0.2661547882157222  1.0000
  C   C1        1.0  0.4387516734373319  0.6124394944330265  0.27101337205104753  1.0000
  C   C2        1.0  0.12204427086138203  0.9794815764215778  0.8957341050696288  1.0000
  C   C3        1.0  0.5244948456369982  0.4620930010223351  0.08968262090419289  1.0000
  C   C4        1.0  0.5244423861595948  0.2150337425828466  0.3696758380607053  1.0000
  C   C5        1.0  0.6695083486085491  0.9559949392793523  0.8904303939814824  1.0000
  C   C6        1.0  0.8332468020651751  0.6816294433177931  0.6779352891118385  1.0000
  C   C7        1.0  0.004872687813948229  0.2563351645699756  0.786022726725749  1.0000
  C   C8        1.0  0.13953716087963897  0.24164217015600453  0.4220500372190496  1.0000
  C   C9        1.0  0.13474853101035156  0.9775520105450444  0.6673950275996114  1.0000
  C   C10       1.0  0.21421523703596285  0.00932710149187077  0.21672526548728793  1.0000
  I   I1        1.0  0.44143548591540915  0.7015461136621537  0.6595916926528927  1.0000
  I   I2        1.0  0.8638521318892478  0.16543810286622473  0.18572571316928665  1.0000
  O   O1        1.0  0.23081834544988022  0.0026275281027163004  0.9891210437271228  1.0000
  O   O2        1.0  0.08408953093125904  0.4309965100305655  0.8069751982996611  1.0000
  O   O3        1.0  0.09841217876406577  0.8305834396434972  0.2269782484047334  1.0000
  O   O4        1.0  0.8247662827781823  0.5423857788227361  0.6180506168430648  1.0000
  O   O5        1.0  0.5388531949917573  0.7314656408820066  0.34263777994797623  1.0000
  O   O6        1.0  0.9905018157787352  0.24250744309606165  0.4757861114598612  1.0000
  O   O7        1.0  0.5089047716666505  0.5223157984421987  0.993264847355888  1.0000
  O   O8        1.0  0.518316992278617  0.9635612479260645  0.931462433585348  1.0000
  O   O9        1.0  0.19108454899914307  0.9799129510767923  0.5665842463180979  1.0000
  O   O10       1.0  0.6276932766931771  0.13726139462136971  0.41695015069577274  1.0000
data_image112
_chemical_formula_structural       Re2C10I2O10
_chemical_formula_sum              "Re2 C10 I2 O10"
_cell_length_a       6.7806348447214
_cell_length_b       6.7806348447214
_cell_length_c       10.993743
_cell_angle_alpha    90.0
_cell_angle_beta     90.0
_cell_angle_gamma    110.32517840843863

_space_group_name_H-M_alt    "P 1"
_space_group_IT_number       1

loop_
  _space_group_symop_operation_xyz
  'x, y, z'

loop_
  _atom_site_type_symbol
  _atom_site_label
  _atom_site_symmetry_multiplicity
  _atom_site_fract_x
  _atom_site_fract_y
  _atom_site_fract_z
  _atom_site_occupancy
  Re  Re1       1.0  0.928780326038093  0.9692974246776508  0.7498114510753975  1.0000
  Re  Re2       1.0  0.29748692089505396  0.2680746601585939  0.30388271779914156  1.0000
  C   C1        1.0  0.48698340723896383  0.5776317219582459  0.33697826363286404  1.0000
  C   C2        1.0  0.07391871434524  0.9468274317310446  0.9054332144201211  1.0000
  C   C3        1.0  0.412536096720614  0.34207141710841593  0.10358804921275418  1.0000
  C   C4        1.0  0.5077665421801437  0.24122213414821164  0.41223033568425727  1.0000
  C   C5        1.0  0.6968122692753318  0.9037025793297413  0.8705347640997437  1.0000
  C   C6        1.0  0.8650655699186489  0.6837943263416166  0.6977369177602061  1.0000
  C   C7        1.0  0.9493561852796351  0.2748385892041747  0.7984228593616284  1.0000
  C   C8        1.0  0.1494188437627634  0.25543559839965746  0.46089910653406513  1.0000
  C   C9        1.0  0.09210934681034155  0.9649031678622596  0.597298006527982  1.0000
  C   C10       1.0  0.141472295775196  0.9067868190587283  0.3027370187688828  1.0000
  I   I1        1.0  0.466670944934086  0.7440304846059604  0.655884699991816  1.0000
  I   I2        1.0  0.9194188295222882  0.22535593366951112  0.1352099304447469  1.0000
  O   O1        1.0  0.1624193039355446  0.9513652152592248  0.9937163032900037  1.0000
  O   O2        1.0  0.9676366213631771  0.4305504274732874  0.8471803402617285  1.0000
  O   O3        1.0  0.0852791772959206  0.7425228009333127  0.25894802693740426  1.0000
  O   O4        1.0  0.7954427033875177  0.5190610117706417  0.6603565635725798  1.0000
  O   O5        1.0  0.6017930782405462  0.740083567020809  0.34539743234711334  1.0000
  O   O6        1.0  0.054672152109293944  0.32403470078498664  0.5348413184751346  1.0000
  O   O7        1.0  0.4013631578691599  0.3801866281678193  0.0027519044727109952  1.0000
  O   O8        1.0  0.5384185325615172  0.8391361807128845  0.9254095478525249  1.0000
  O   O9        1.0  0.08933690818488071  0.864154293697448  0.5117897103668564  1.0000
  O   O10       1.0  0.6602854999215735  0.22858551707083719  0.4660276521446552  1.0000
data_image113
_chemical_formula_structural       Re2C10I2O10
_chemical_formula_sum              "Re2 C10 I2 O10"
_cell_length_a       6.7806348447214
_cell_length_b       6.7806348447214
_cell_length_c       10.993743
_cell_angle_alpha    90.0
_cell_angle_beta     90.0
_cell_angle_gamma    110.32517840843863

_space_group_name_H-M_alt    "P 1"
_space_group_IT_number       1

loop_
  _space_group_symop_operation_xyz
  'x, y, z'

loop_
  _atom_site_type_symbol
  _atom_site_label
  _atom_site_symmetry_multiplicity
  _atom_site_fract_x
  _atom_site_fract_y
  _atom_site_fract_z
  _atom_site_occupancy
  Re  Re1       1.0  0.8994776428208674  0.9189515628726492  0.7700704855945153  1.0000
  Re  Re2       1.0  0.26644322643628365  0.2750054220291977  0.3001439438568675  1.0000
  C   C1        1.0  0.5544428665026885  0.5400228946981585  0.29850433206813637  1.0000
  C   C2        1.0  0.05728439308119704  0.8689285405235233  0.9176399829519181  1.0000
  C   C3        1.0  0.40071672653613477  0.21548044841881114  0.14320600051453922  1.0000
  C   C4        1.0  0.46585835537039555  0.1788184122413581  0.3699888866083088  1.0000
  C   C5        1.0  0.6885795581108838  0.9154072228922631  0.9059659380981038  1.0000
  C   C6        1.0  0.8686217406646923  0.6028301305483651  0.7433418148246541  1.0000
  C   C7        1.0  0.08156209373912215  0.1927912481739591  0.8214401541956492  1.0000
  C   C8        1.0  0.1545543737537752  0.46005559880922253  0.4580278602323636  1.0000
  C   C9        1.0  0.020354537265782513  0.9031615040054718  0.6015629690743213  1.0000
  C   C10       1.0  0.24214901450850396  0.970921570853772  0.2568409219145647  1.0000
  I   I1        1.0  0.46567273610926474  0.7847181317421482  0.6253167559343104  1.0000
  I   I2        1.0  0.9378488229776373  0.30809747838750634  0.1509873934172856  1.0000
  O   O1        1.0  0.13525188912041353  0.7758938063801942  0.980197336608083  1.0000
  O   O2        1.0  0.11217953343195664  0.38084462702173183  0.8448026185977157  1.0000
  O   O3        1.0  0.22300659471521506  0.7933081026640862  0.23461703709002632  1.0000
  O   O4        1.0  0.791670855521248  0.432356527186621  0.714933923088488  1.0000
  O   O5        1.0  0.7279880576573384  0.6271243515650993  0.2868029210230874  1.0000
  O   O6        1.0  0.012354621504566874  0.5162453939558194  0.45755399953924875  1.0000
  O   O7        1.0  0.4828843546247268  0.19582391013677578  0.052093847394212654  1.0000
  O   O8        1.0  0.6026382277638862  0.9450162453827909  0.9930516436953483  1.0000
  O   O9        1.0  0.09028332063967404  0.9337645890157183  0.506738572479896  1.0000
  O   O10       1.0  0.6160176345462907  0.12409271291073422  0.3859536398751195  1.0000
data_image114
_chemical_formula_structural       Re2C10I2O10
_chemical_formula_sum              "Re2 C10 I2 O10"
_cell_length_a       6.7806348447214
_cell_length_b       6.7806348447214
_cell_length_c       10.993743
_cell_angle_alpha    90.0
_cell_angle_beta     90.0
_cell_angle_gamma    110.32517840843863

_space_group_name_H-M_alt    "P 1"
_space_group_IT_number       1

loop_
  _space_group_symop_operation_xyz
  'x, y, z'

loop_
  _atom_site_type_symbol
  _atom_site_label
  _atom_site_symmetry_multiplicity
  _atom_site_fract_x
  _atom_site_fract_y
  _atom_site_fract_z
  _atom_site_occupancy
  Re  Re1       1.0  0.8633634642782385  0.8934404816489769  0.7723372673254474  1.0000
  Re  Re2       1.0  0.2574320413046646  0.2916158040768527  0.3067728501176982  1.0000
  C   C1        1.0  0.5301383555707372  0.6304890156275631  0.3188122640992786  1.0000
  C   C2        1.0  0.01209390060566351  0.8238905690436347  0.8893507555143773  1.0000
  C   C3        1.0  0.3988055959078558  0.3336447680917415  0.10722601269419335  1.0000
  C   C4        1.0  0.47429456986784135  0.23678564247289488  0.3934089674841656  1.0000
  C   C5        1.0  0.6883589916451256  0.8966563266398736  0.9087328137962503  1.0000
  C   C6        1.0  0.7970622984944604  0.5928290849939621  0.6915972514952815  1.0000
  C   C7        1.0  0.20773867796239243  0.12660432219971907  0.7933963022970209  1.0000
  C   C8        1.0  0.07047451640281015  0.4186399776846361  0.4073260207913129  1.0000
  C   C9        1.0  0.04517262652376375  0.894825544311875  0.614158460866036  1.0000
  C   C10       1.0  0.22868258615513776  0.9773000787306678  0.2879184455285305  1.0000
  I   I1        1.0  0.5096757997848154  0.7476809248836108  0.6190793458207615  1.0000
  I   I2        1.0  0.9438728545382985  0.30568310686452194  0.15639289359330963  1.0000
  O   O1        1.0  0.14488008296400512  0.831660050260093  0.9620078272284812  1.0000
  O   O2        1.0  0.3428211013775413  0.28737932742323014  0.7818223666263845  1.0000
  O   O3        1.0  0.23389938577440958  0.8046850318067376  0.2708085332431207  1.0000
  O   O4        1.0  0.772881766180068  0.4053322091553534  0.6736956202734893  1.0000
  O   O5        1.0  0.6629740081701774  0.7693486497476953  0.27891541066252173  1.0000
  O   O6        1.0  0.946164258511808  0.5045954483129462  0.44200132389440544  1.0000
  O   O7        1.0  0.49441033575436377  0.39198011860546533  0.011670409937219739  1.0000
  O   O8        1.0  0.6492131816270934  0.9557799400899494  0.00887252350580936  1.0000
  O   O9        1.0  0.16715558305314993  0.9171462704511933  0.540073852604456  1.0000
  O   O10       1.0  0.5698444874236446  0.22173660020890287  0.4745127936942826  1.0000
data_image115
_chemical_formula_structural       Re2C10I2O10
_chemical_formula_sum              "Re2 C10 I2 O10"
_cell_length_a       6.7806348447214
_cell_length_b       6.7806348447214
_cell_length_c       10.993743
_cell_angle_alpha    90.0
_cell_angle_beta     90.0
_cell_angle_gamma    110.32517840843863

_space_group_name_H-M_alt    "P 1"
_space_group_IT_number       1

loop_
  _space_group_symop_operation_xyz
  'x, y, z'

loop_
  _atom_site_type_symbol
  _atom_site_label
  _atom_site_symmetry_multiplicity
  _atom_site_fract_x
  _atom_site_fract_y
  _atom_site_fract_z
  _atom_site_occupancy
  Re  Re1       1.0  0.8800137761798381  0.8932155916044676  0.7738795091034323  1.0000
  Re  Re2       1.0  0.2769688169887935  0.2979454903533111  0.3008394135772185  1.0000
  C   C1        1.0  0.37181192357382015  0.6092345153968719  0.31429803948154716  1.0000
  C   C2        1.0  0.05707046594747456  0.8223908865076597  0.897597589750429  1.0000
  C   C3        1.0  0.3925546463049843  0.3378456400903809  0.11171657159186282  1.0000
  C   C4        1.0  0.5386960489176724  0.3065122144475746  0.39465097721952447  1.0000
  C   C5        1.0  0.6534671182888325  0.859665782194158  0.8989968975224722  1.0000
  C   C6        1.0  0.8545498162984706  0.5673456104183306  0.7231183833020574  1.0000
  C   C7        1.0  0.15124483930963528  0.17767871438972227  0.7724343211033795  1.0000
  C   C8        1.0  0.10999222904481194  0.36350819312178895  0.4508752902207566  1.0000
  C   C9        1.0  0.9811556833711496  0.8980701101643414  0.60935036691929  1.0000
  C   C10       1.0  0.1344603512878097  0.9496143525535554  0.31313480280498257  1.0000
  I   I1        1.0  0.5333431780616594  0.7918424939717214  0.6465919218408257  1.0000
  I   I2        1.0  0.9271974740374693  0.25720134870337674  0.09991074307706477  1.0000
  O   O1        1.0  0.19429768986801044  0.8189963265478476  0.9664648041652265  1.0000
  O   O2        1.0  0.27858178847424186  0.34522669505501913  0.7830481576629525  1.0000
  O   O3        1.0  0.0592250336135822  0.7862799324450889  0.3250031417923642  1.0000
  O   O4        1.0  0.831807133417538  0.3887281228440527  0.7295888797520392  1.0000
  O   O5        1.0  0.4618624213042215  0.7805893453119803  0.3109446476302689  1.0000
  O   O6        1.0  0.09356167418327184  0.476460628796576  0.5362279839254027  1.0000
  O   O7        1.0  0.4625351092135293  0.3864262367616245  0.011570201296625846  1.0000
  O   O8        1.0  0.5713185480710263  0.8686569615161539  0.9932459205174423  1.0000
  O   O9        1.0  0.08855612486261522  0.9178764649314638  0.537483211887437  1.0000
  O   O10       1.0  0.6207682934342948  0.30609436163612647  0.4835568383448241  1.0000
data_image116
_chemical_formula_structural       Re2C10I2O10
_chemical_formula_sum              "Re2 C10 I2 O10"
_cell_length_a       6.7806348447214
_cell_length_b       6.7806348447214
_cell_length_c       10.993743
_cell_angle_alpha    90.0
_cell_angle_beta     90.0
_cell_angle_gamma    110.32517840843863

_space_group_name_H-M_alt    "P 1"
_space_group_IT_number       1

loop_
  _space_group_symop_operation_xyz
  'x, y, z'

loop_
  _atom_site_type_symbol
  _atom_site_label
  _atom_site_symmetry_multiplicity
  _atom_site_fract_x
  _atom_site_fract_y
  _atom_site_fract_z
  _atom_site_occupancy
  Re  Re1       1.0  0.9337299283169856  0.8758304207423165  0.7817576642612244  1.0000
  Re  Re2       1.0  0.24979915309567907  0.2910698991772856  0.2864471485697603  1.0000
  C   C1        1.0  0.31636030108583096  0.590160332458123  0.29730002409141193  1.0000
  C   C2        1.0  0.10318135181188981  0.888658375365311  0.9225798710005048  1.0000
  C   C3        1.0  0.4195804313670964  0.3318570568383243  0.13845419178155033  1.0000
  C   C4        1.0  0.5263298277747377  0.3214810122424202  0.344448063954812  1.0000
  C   C5        1.0  0.7378833007751857  0.8570832330914195  0.9247018536745658  1.0000
  C   C6        1.0  0.7838645495634385  0.5705324885084676  0.7417448081820945  1.0000
  C   C7        1.0  0.13609125803645483  0.1975860198231305  0.7911510463072339  1.0000
  C   C8        1.0  0.08499571930080382  0.2613342997644843  0.4380905811127444  1.0000
  C   C9        1.0  0.008831013191733739  0.9461563548733252  0.6142805758611842  1.0000
  C   C10       1.0  0.05106767759169794  0.9824573674554078  0.23046169563688895  1.0000
  I   I1        1.0  0.5124060601935472  0.8006807746962141  0.6676632930140549  1.0000
  I   I2        1.0  0.9595269930812848  0.2865603302764961  0.11642307242721699  1.0000
  O   O1        1.0  0.2428251364801539  0.8572378251268282  0.9756809994511169  1.0000
  O   O2        1.0  0.14577871254095331  0.357348396868171  0.8008089152333456  1.0000
  O   O3        1.0  0.9188702182406953  0.8200990714818863  0.2407774252831492  1.0000
  O   O4        1.0  0.6964320114782213  0.38435805190413336  0.7474699331571415  1.0000
  O   O5        1.0  0.4278841050503806  0.7626050708233771  0.28424344902795096  1.0000
  O   O6        1.0  0.9561787143872454  0.29438663231529927  0.49662005184162944  1.0000
  O   O7        1.0  0.5512027321444469  0.3991587902295473  0.0696034891494453  1.0000
  O   O8        1.0  0.6175197642861492  0.8074722968678507  0.0032909322566869736  1.0000
  O   O9        1.0  0.03932117901456911  0.9279409684163351  0.5106227767065822  1.0000
  O   O10       1.0  0.7089064615386653  0.39441297486592564  0.36412014807950993  1.0000
data_image117
_chemical_formula_structural       Re2C10I2O10
_chemical_formula_sum              "Re2 C10 I2 O10"
_cell_length_a       6.7806348447214
_cell_length_b       6.7806348447214
_cell_length_c       10.993743
_cell_angle_alpha    90.0
_cell_angle_beta     90.0
_cell_angle_gamma    110.32517840843863

_space_group_name_H-M_alt    "P 1"
_space_group_IT_number       1

loop_
  _space_group_symop_operation_xyz
  'x, y, z'

loop_
  _atom_site_type_symbol
  _atom_site_label
  _atom_site_symmetry_multiplicity
  _atom_site_fract_x
  _atom_site_fract_y
  _atom_site_fract_z
  _atom_site_occupancy
  Re  Re1       1.0  0.9122486010490506  0.843391250328815  0.7705546211502967  1.0000
  Re  Re2       1.0  0.24692864771967488  0.31067362925697606  0.2812975929540249  1.0000
  C   C1        1.0  0.2875558842759216  0.5958514579868119  0.33677373428807256  1.0000
  C   C2        1.0  0.147926836533667  0.8238284367243136  0.8497454384030022  1.0000
  C   C3        1.0  0.4125512546492917  0.3468024365814429  0.138398564682242  1.0000
  C   C4        1.0  0.4373596019014542  0.2777887432734742  0.3898334495386973  1.0000
  C   C5        1.0  0.6812538449280903  0.7755851171700127  0.9065298578554323  1.0000
  C   C6        1.0  0.7274321143967737  0.5214377173361426  0.7252264906896083  1.0000
  C   C7        1.0  0.06877851897250853  0.13644977136485226  0.8023130390392093  1.0000
  C   C8        1.0  0.09392302077239492  0.2609865558461457  0.42623282861627226  1.0000
  C   C9        1.0  0.1295042850044974  0.9102214102174441  0.6475205868800014  1.0000
  C   C10       1.0  0.13057282719598484  0.9911849316820556  0.2268561447879041  1.0000
  I   I1        1.0  0.5309294023421574  0.8340607162430022  0.6931024517299056  1.0000
  I   I2        1.0  0.9725427539537541  0.35062871134548146  0.1162024523568506  1.0000
  O   O1        1.0  0.2938348490139726  0.763754839920792  0.8939492074550253  1.0000
  O   O2        1.0  0.12221674695813212  0.3196478691340612  0.8286306539083836  1.0000
  O   O3        1.0  0.059481678995135574  0.8596782310504194  0.16123483543698974  1.0000
  O   O4        1.0  0.677284411729115  0.34710334708317747  0.697398928051592  1.0000
  O   O5        1.0  0.3768602295987918  0.7575163219039889  0.3801995234654732  1.0000
  O   O6        1.0  0.9450688043283065  0.19997852787108372  0.48584709041222995  1.0000
  O   O7        1.0  0.4388432109364769  0.28616405541085  0.0447946772909397  1.0000
  O   O8        1.0  0.6088073185444229  0.7915529204221838  0.996533750206324  1.0000
  O   O9        1.0  0.233827824927904  0.9234943828364506  0.5620281542480604  1.0000
  O   O10       1.0  0.6149133065368741  0.3563289859937876  0.4396385182711635  1.0000
data_image118
_chemical_formula_structural       Re2C10I2O10
_chemical_formula_sum              "Re2 C10 I2 O10"
_cell_length_a       6.7806348447214
_cell_length_b       6.7806348447214
_cell_length_c       10.993743
_cell_angle_alpha    90.0
_cell_angle_beta     90.0
_cell_angle_gamma    110.32517840843863

_space_group_name_H-M_alt    "P 1"
_space_group_IT_number       1

loop_
  _space_group_symop_operation_xyz
  'x, y, z'

loop_
  _atom_site_type_symbol
  _atom_site_label
  _atom_site_symmetry_multiplicity
  _atom_site_fract_x
  _atom_site_fract_y
  _atom_site_fract_z
  _atom_site_occupancy
  Re  Re1       1.0  0.907730168135436  0.8557882052414898  0.7529790370664223  1.0000
  Re  Re2       1.0  0.25122557877731083  0.29592268151424533  0.2827716015326576  1.0000
  C   C1        1.0  0.33278081107343477  0.5872571301786027  0.3532480181905028  1.0000
  C   C2        1.0  0.09897598805563868  0.8200731659787478  0.8696656279821336  1.0000
  C   C3        1.0  0.3927650271801305  0.3027893321542097  0.11363090761449293  1.0000
  C   C4        1.0  0.4152959989818128  0.17158600961355253  0.3787939445918793  1.0000
  C   C5        1.0  0.8380046280978459  0.7866622810536041  0.9207232228065558  1.0000
  C   C6        1.0  0.7302450343029993  0.5463989372664003  0.7604214622903684  1.0000
  C   C7        1.0  0.012968472113904728  0.1723516687305664  0.7714317163344168  1.0000
  C   C8        1.0  0.04318593137967036  0.29338123637948965  0.4526548648964502  1.0000
  C   C9        1.0  0.020811512885520633  0.8014864403100157  0.5781307476587517  1.0000
  C   C10       1.0  0.3071105898014786  0.010863319844219177  0.22980162517874417  1.0000
  I   I1        1.0  0.5387188939840526  0.8587130120264114  0.6952553454920626  1.0000
  I   I2        1.0  0.963623553053477  0.3746152295840991  0.1158506320331682  1.0000
  O   O1        1.0  0.20535326432603163  0.8048242199204085  0.9549784138603613  1.0000
  O   O2        1.0  0.07954753267370362  0.3452644410003145  0.7990215338373672  1.0000
  O   O3        1.0  0.22661837910732519  0.827269303359575  0.2134793433470828  1.0000
  O   O4        1.0  0.691481719832401  0.3713960875496337  0.7935223591317017  1.0000
  O   O5        1.0  0.40997398294210996  0.7124718132120249  0.42967491859813906  1.0000
  O   O6        1.0  0.9489777419149187  0.2896553721066122  0.5418139179718349  1.0000
  O   O7        1.0  0.399430223948973  0.25085620704565814  0.009150674126293841  1.0000
  O   O8        1.0  0.7991265850313094  0.7360957525601461  0.019680137836924017  1.0000
  O   O9        1.0  0.02082098846293845  0.863524146237371  0.47838305411262  1.0000
  O   O10       1.0  0.5469159116013057  0.1403958276843605  0.4405434503768313  1.0000
data_image119
_chemical_formula_structural       Re2C10I2O10
_chemical_formula_sum              "Re2 C10 I2 O10"
_cell_length_a       6.7806348447214
_cell_length_b       6.7806348447214
_cell_length_c       10.993743
_cell_angle_alpha    90.0
_cell_angle_beta     90.0
_cell_angle_gamma    110.32517840843863

_space_group_name_H-M_alt    "P 1"
_space_group_IT_number       1

loop_
  _space_group_symop_operation_xyz
  'x, y, z'

loop_
  _atom_site_type_symbol
  _atom_site_label
  _atom_site_symmetry_multiplicity
  _atom_site_fract_x
  _atom_site_fract_y
  _atom_site_fract_z
  _atom_site_occupancy
  Re  Re1       1.0  0.9176772128635857  0.848628924648269  0.7652033295065841  1.0000
  Re  Re2       1.0  0.275066678951074  0.3023489462357138  0.278820726663857  1.0000
  C   C1        1.0  0.37566275182364217  0.5547288749648154  0.3733492377490097  1.0000
  C   C2        1.0  0.1893782897126901  0.8820729896502484  0.8144727859024565  1.0000
  C   C3        1.0  0.4149682563682876  0.36262803405195887  0.12899166973985413  1.0000
  C   C4        1.0  0.5401785836824942  0.2825864090194854  0.35102416934881225  1.0000
  C   C5        1.0  0.8066838783028147  0.8058739056876073  0.9338606365863596  1.0000
  C   C6        1.0  0.659058035900032  0.489749492393765  0.7431920867256758  1.0000
  C   C7        1.0  0.9972086998593981  0.1750879778707206  0.7537042960565421  1.0000
  C   C8        1.0  0.09717151512161917  0.3187384985335153  0.44438801497961383  1.0000
  C   C9        1.0  0.8900845908440795  0.7079465975977989  0.5852041118972837  1.0000
  C   C10       1.0  0.25799155873675894  0.015214706726164984  0.2439022190767854  1.0000
  I   I1        1.0  0.520221081286425  0.8581986528118147  0.6894372721490049  1.0000
  I   I2        1.0  0.9460963503944047  0.3276783858621908  0.14327433874974912  1.0000
  O   O1        1.0  0.33508273705912517  0.014128160779614292  0.8570117944225034  1.0000
  O   O2        1.0  0.035102604223753  0.35229824681658095  0.7481299702146053  1.0000
  O   O3        1.0  0.16055502766020163  0.8364332443188995  0.27424862820491164  1.0000
  O   O4        1.0  0.5706474769473411  0.313181873599524  0.7514684696036296  1.0000
  O   O5        1.0  0.49555602349818023  0.7013803577595485  0.40841104654367966  1.0000
  O   O6        1.0  0.9787251325974613  0.3574385190451026  0.5031923606170942  1.0000
  O   O7        1.0  0.45943070624307103  0.3921397459960843  0.03000558661295892  1.0000
  O   O8        1.0  0.7139927223902449  0.8304642169420604  0.01876855901777552  1.0000
  O   O9        1.0  0.8065939901382077  0.6667719797959356  0.48978555718191236  1.0000
  O   O10       1.0  0.6498167073691938  0.19257082767161052  0.3743811142069219  1.0000
data_image120
_chemical_formula_structural       Re2C10I2O10
_chemical_formula_sum              "Re2 C10 I2 O10"
_cell_length_a       6.7806348447214
_cell_length_b       6.7806348447214
_cell_length_c       10.993743
_cell_angle_alpha    90.0
_cell_angle_beta     90.0
_cell_angle_gamma    110.32517840843863

_space_group_name_H-M_alt    "P 1"
_space_group_IT_number       1

loop_
  _space_group_symop_operation_xyz
  'x, y, z'

loop_
  _atom_site_type_symbol
  _atom_site_label
  _atom_site_symmetry_multiplicity
  _atom_site_fract_x
  _atom_site_fract_y
  _atom_site_fract_z
  _atom_site_occupancy
  Re  Re1       1.0  0.9277007922371963  0.8493016129631985  0.7858412497277192  1.0000
  Re  Re2       1.0  0.300017824231442  0.28418004431635785  0.2974110554084165  1.0000
  C   C1        1.0  0.4068966660380262  0.5747888868603941  0.3266824460422499  1.0000
  C   C2        1.0  0.15637772818102258  0.8451803850983342  0.8794148757044827  1.0000
  C   C3        1.0  0.3394759843234595  0.3176349047338344  0.09771519831392585  1.0000
  C   C4        1.0  0.5526435971768396  0.29987566837136365  0.36328563780021117  1.0000
  C   C5        1.0  0.7361622827816532  0.8609621767776605  0.9304213677541963  1.0000
  C   C6        1.0  0.7375986848857374  0.5881744338994879  0.7095176234870271  1.0000
  C   C7        1.0  0.9898408269483343  0.1287927901566801  0.7509944227224108  1.0000
  C   C8        1.0  0.13411301728115652  0.24997106543492986  0.4386577805215569  1.0000
  C   C9        1.0  0.9948718652988403  0.7497936864324153  0.5599455363432623  1.0000
  C   C10       1.0  0.1559641140296625  0.9537855307521861  0.22725611484060035  1.0000
  I   I1        1.0  0.5342265358161373  0.87525948050862  0.6521171925287618  1.0000
  I   I2        1.0  0.9173736579325017  0.33287794910708024  0.13631739411949867  1.0000
  O   O1        1.0  0.24627827629143728  0.9441186422215677  0.9583343214355572  1.0000
  O   O2        1.0  0.01475896003623589  0.3068647222942831  0.7418918966694453  1.0000
  O   O3        1.0  0.0687787696137411  0.769475756718613  0.2589076695351408  1.0000
  O   O4        1.0  0.5846002310987541  0.4474419849066601  0.685345412469221  1.0000
  O   O5        1.0  0.4552445759712586  0.7601465422482572  0.34019262905447095  1.0000
  O   O6        1.0  0.9865559201640406  0.1933485155854231  0.5094622428783726  1.0000
  O   O7        1.0  0.3640855600159252  0.37226509909117483  0.004863753048574952  1.0000
  O   O8        1.0  0.6726510346068777  0.9353810143567607  0.007246578610941912  1.0000
  O   O9        1.0  0.8868108703404912  0.7355882290232831  0.4774406535439748  1.0000
  O   O10       1.0  0.6674533962797067  0.24873674547793298  0.4373121506408337  1.0000
data_image121
_chemical_formula_structural       Re2C10I2O10
_chemical_formula_sum              "Re2 C10 I2 O10"
_cell_length_a       6.7806348447214
_cell_length_b       6.7806348447214
_cell_length_c       10.993743
_cell_angle_alpha    90.0
_cell_angle_beta     90.0
_cell_angle_gamma    110.32517840843863

_space_group_name_H-M_alt    "P 1"
_space_group_IT_number       1

loop_
  _space_group_symop_operation_xyz
  'x, y, z'

loop_
  _atom_site_type_symbol
  _atom_site_label
  _atom_site_symmetry_multiplicity
  _atom_site_fract_x
  _atom_site_fract_y
  _atom_site_fract_z
  _atom_site_occupancy
  Re  Re1       1.0  0.8871000396723555  0.842526104508772  0.7757388544709684  1.0000
  Re  Re2       1.0  0.30979316776397087  0.2967359208435008  0.2826383998748837  1.0000
  C   C1        1.0  0.48817123250047273  0.6083111415728832  0.24103373501687544  1.0000
  C   C2        1.0  0.11462633846740022  0.8360430794486033  0.8784970695180775  1.0000
  C   C3        1.0  0.37512280269724957  0.3302859543408651  0.1035066666497188  1.0000
  C   C4        1.0  0.5640881547952045  0.3180077097925435  0.3867849891848434  1.0000
  C   C5        1.0  0.6733551727202909  0.8184483438469214  0.9578021788175658  1.0000
  C   C6        1.0  0.6460659504949164  0.5149340280272044  0.7773516024481539  1.0000
  C   C7        1.0  0.990695983647252  0.14373105259601004  0.7567757175193819  1.0000
  C   C8        1.0  0.19445420505364733  0.2507989662993477  0.45589109359480595  1.0000
  C   C9        1.0  0.9938178789140603  0.7814671513344117  0.632819850735323  1.0000
  C   C10       1.0  0.10092350355024696  0.020073804203441625  0.23493324341775962  1.0000
  I   I1        1.0  0.547044211581587  0.8727803405150979  0.6560067264129107  1.0000
  I   I2        1.0  0.9355451778798588  0.328056355797793  0.14933562835413847  1.0000
  O   O1        1.0  0.18373692573739597  0.8366820732109538  0.971835388773115  1.0000
  O   O2        1.0  0.018542618788378817  0.3342784002488961  0.7469114764046536  1.0000
  O   O3        1.0  0.01184838610657629  0.8570341652368263  0.1967097252837954  1.0000
  O   O4        1.0  0.5410803555749615  0.3435010744966097  0.743772256180768  1.0000
  O   O5        1.0  0.5964914973912566  0.770640614861261  0.22580744536037414  1.0000
  O   O6        1.0  0.149553230793843  0.2350117813086452  0.5584880304447092  1.0000
  O   O7        1.0  0.41076204471717176  0.4018895275210419  0.003371477116443934  1.0000
  O   O8        1.0  0.5779099984502396  0.8882131041138154  0.009888895158302935  1.0000
  O   O9        1.0  0.94133912122375  0.6770193293393971  0.5494073184596571  1.0000
  O   O10       1.0  0.6663798042696008  0.3232306818098279  0.47420418574429213  1.0000
data_image122
_chemical_formula_structural       Re2C10I2O10
_chemical_formula_sum              "Re2 C10 I2 O10"
_cell_length_a       6.7806348447214
_cell_length_b       6.7806348447214
_cell_length_c       10.993743
_cell_angle_alpha    90.0
_cell_angle_beta     90.0
_cell_angle_gamma    110.32517840843863

_space_group_name_H-M_alt    "P 1"
_space_group_IT_number       1

loop_
  _space_group_symop_operation_xyz
  'x, y, z'

loop_
  _atom_site_type_symbol
  _atom_site_label
  _atom_site_symmetry_multiplicity
  _atom_site_fract_x
  _atom_site_fract_y
  _atom_site_fract_z
  _atom_site_occupancy
  Re  Re1       1.0  0.844129950491124  0.828351362412893  0.7708866300548046  1.0000
  Re  Re2       1.0  0.31742833302529233  0.3195509268884633  0.26019372561740695  1.0000
  C   C1        1.0  0.4465369037672781  0.611790467698831  0.3046023996830959  1.0000
  C   C2        1.0  0.053076800339910024  0.7567272855885734  0.8626138173766632  1.0000
  C   C3        1.0  0.4956604267004063  0.27854412650254523  0.1287371710498196  1.0000
  C   C4        1.0  0.5238507204615749  0.2604410244849102  0.3503736455302707  1.0000
  C   C5        1.0  0.6942844561833479  0.8705905333023677  0.9125788761939795  1.0000
  C   C6        1.0  0.5887536566571155  0.5269926534382096  0.8211936565686808  1.0000
  C   C7        1.0  0.0063822747094857135  0.11219420732956831  0.7746538686635446  1.0000
  C   C8        1.0  0.17460482636511135  0.2804720385053052  0.43454722330306367  1.0000
  C   C9        1.0  0.9990611804838923  0.7482037458560796  0.6239520579332721  1.0000
  C   C10       1.0  0.15563247122726998  0.0208824360537907  0.23192418521061206  1.0000
  I   I1        1.0  0.5276458178857522  0.9202823335786107  0.6675801468319785  1.0000
  I   I2        1.0  0.9943731871125834  0.34070111481218046  0.17329508590578035  1.0000
  O   O1        1.0  0.1571866449542425  0.6774821750229434  0.909042024252737  1.0000
  O   O2        1.0  0.09684211627389105  0.28602791288261  0.7273647697506904  1.0000
  O   O3        1.0  0.0825598247423496  0.8422600505972819  0.2022064675970472  1.0000
  O   O4        1.0  0.4728021303833192  0.3534210883978179  0.7985632240671193  1.0000
  O   O5        1.0  0.5659189662333118  0.7799091110155632  0.3334890995938843  1.0000
  O   O6        1.0  0.037813609120238366  0.20921807545909  0.4957650619917746  1.0000
  O   O7        1.0  0.5569559072808171  0.2772299996639333  0.030874531291056644  1.0000
  O   O8        1.0  0.6265536862541661  0.9374801936196722  0.9920695920948432  1.0000
  O   O9        1.0  0.01677047305650836  0.6377646424899575  0.5570310826786162  1.0000
  O   O10       1.0  0.5906684654843306  0.2131488531727397  0.4434620562340505  1.0000
data_image123
_chemical_formula_structural       Re2C10I2O10
_chemical_formula_sum              "Re2 C10 I2 O10"
_cell_length_a       6.7806348447214
_cell_length_b       6.7806348447214
_cell_length_c       10.993743
_cell_angle_alpha    90.0
_cell_angle_beta     90.0
_cell_angle_gamma    110.32517840843863

_space_group_name_H-M_alt    "P 1"
_space_group_IT_number       1

loop_
  _space_group_symop_operation_xyz
  'x, y, z'

loop_
  _atom_site_type_symbol
  _atom_site_label
  _atom_site_symmetry_multiplicity
  _atom_site_fract_x
  _atom_site_fract_y
  _atom_site_fract_z
  _atom_site_occupancy
  Re  Re1       1.0  0.857208081936698  0.8458556627533445  0.7522774511724112  1.0000
  Re  Re2       1.0  0.295446554104837  0.32009374717732364  0.29914824917246535  1.0000
  C   C1        1.0  0.41454603432099835  0.6247379274534361  0.3438762663384376  1.0000
  C   C2        1.0  0.04486651127524932  0.7719032667054043  0.8629195793618887  1.0000
  C   C3        1.0  0.4787703989722356  0.40353718885096157  0.132611302069974  1.0000
  C   C4        1.0  0.5469069096911227  0.28059899902599167  0.36582994268838936  1.0000
  C   C5        1.0  0.7311675491166971  0.8263933799379828  0.9184149715338603  1.0000
  C   C6        1.0  0.633817461012194  0.5075748892092199  0.79094699730838  1.0000
  C   C7        1.0  0.05465281583251702  0.09986785564132572  0.701021761440205  1.0000
  C   C8        1.0  0.15240322106652604  0.1456642302329274  0.4368239749006961  1.0000
  C   C9        1.0  0.9370521516464287  0.6505732949366387  0.6376664182056494  1.0000
  C   C10       1.0  0.17519748948559977  0.011236355212266513  0.2159619663677456  1.0000
  I   I1        1.0  0.566025592778138  0.9621327709851802  0.6742709653124934  1.0000
  I   I2        1.0  0.9422252866368864  0.3072513502278873  0.1439875782401472  1.0000
  O   O1        1.0  0.1455183775734934  0.6995721086865393  0.9138057878588662  1.0000
  O   O2        1.0  0.2201623038732743  0.1918408536682641  0.6645709986818293  1.0000
  O   O3        1.0  0.10645661927711222  0.824934326556716  0.21115085106612935  1.0000
  O   O4        1.0  0.6091672276928177  0.33523729813668596  0.7701036721582885  1.0000
  O   O5        1.0  0.4844059099560377  0.8143903726018267  0.34764550738522426  1.0000
  O   O6        1.0  0.017703852239670994  0.03176100968337514  0.5004329274828407  1.0000
  O   O7        1.0  0.5489951217316577  0.45163649858470034  0.03292673932940013  1.0000
  O   O8        1.0  0.6844286468006751  0.9034809707753484  0.000380795109758747  1.0000
  O   O9        1.0  0.8991191433784896  0.49609269992886174  0.588355451927201  1.0000
  O   O10       1.0  0.692032155629335  0.3064258493634577  0.43251732104714796  1.0000
data_image124
_chemical_formula_structural       Re2C10I2O10
_chemical_formula_sum              "Re2 C10 I2 O10"
_cell_length_a       6.7806348447214
_cell_length_b       6.7806348447214
_cell_length_c       10.993743
_cell_angle_alpha    90.0
_cell_angle_beta     90.0
_cell_angle_gamma    110.32517840843863

_space_group_name_H-M_alt    "P 1"
_space_group_IT_number       1

loop_
  _space_group_symop_operation_xyz
  'x, y, z'

loop_
  _atom_site_type_symbol
  _atom_site_label
  _atom_site_symmetry_multiplicity
  _atom_site_fract_x
  _atom_site_fract_y
  _atom_site_fract_z
  _atom_site_occupancy
  Re  Re1       1.0  0.9041924071097909  0.8614512399230689  0.7562974181077454  1.0000
  Re  Re2       1.0  0.24951603687879378  0.3017887411268745  0.3161062969618167  1.0000
  C   C1        1.0  0.3453626374416795  0.5973553904136346  0.3511133751532769  1.0000
  C   C2        1.0  0.1175987741102511  0.8730000838236258  0.8820292093887205  1.0000
  C   C3        1.0  0.3995252428875962  0.3135712482696598  0.1601091911436761  1.0000
  C   C4        1.0  0.47428499895974674  0.2403235145815648  0.3612708576457018  1.0000
  C   C5        1.0  0.7047538456704836  0.8220686604347647  0.8958368685400866  1.0000
  C   C6        1.0  0.6632227160150928  0.5371528088437743  0.7839460252314585  1.0000
  C   C7        1.0  0.1127587644310184  0.10920156304116446  0.6874598943281569  1.0000
  C   C8        1.0  0.0738553084455957  0.054761723646245875  0.40771700561864976  1.0000
  C   C9        1.0  0.9757691690286392  0.6540783609379686  0.6260692143549557  1.0000
  C   C10       1.0  0.15936628449425966  0.980291704495893  0.24833914319713327  1.0000
  I   I1        1.0  0.5465547359970193  0.9663112167293884  0.6500538333070345  1.0000
  I   I2        1.0  0.9810393417918287  0.34459961953456353  0.14446702725129415  1.0000
  O   O1        1.0  0.25997098716616573  0.8684096054140942  0.9280727348901043  1.0000
  O   O2        1.0  0.25921405679293263  0.22990960623174028  0.6391962020741874  1.0000
  O   O3        1.0  0.0849649333225849  0.8235363332359535  0.1886542965864827  1.0000
  O   O4        1.0  0.6877412188787939  0.3857115329992621  0.8204826706580834  1.0000
  O   O5        1.0  0.4461134169406016  0.7622628319087466  0.37422802615559775  1.0000
  O   O6        1.0  0.9257713840204154  0.9314112108007782  0.45596120305344606  1.0000
  O   O7        1.0  0.4454700553442767  0.3129734978778745  0.05842268022734134  1.0000
  O   O8        1.0  0.5848235721140123  0.7817518311802096  0.980229653372589  1.0000
  O   O9        1.0  0.029336304146064807  0.5452778896323356  0.571454601685165  1.0000
  O   O10       1.0  0.6380274743932166  0.22703554802385648  0.39620497641332136  1.0000
data_image125
_chemical_formula_structural       Re2C10I2O10
_chemical_formula_sum              "Re2 C10 I2 O10"
_cell_length_a       6.7806348447214
_cell_length_b       6.7806348447214
_cell_length_c       10.993743
_cell_angle_alpha    90.0
_cell_angle_beta     90.0
_cell_angle_gamma    110.32517840843863

_space_group_name_H-M_alt    "P 1"
_space_group_IT_number       1

loop_
  _space_group_symop_operation_xyz
  'x, y, z'

loop_
  _atom_site_type_symbol
  _atom_site_label
  _atom_site_symmetry_multiplicity
  _atom_site_fract_x
  _atom_site_fract_y
  _atom_site_fract_z
  _atom_site_occupancy
  Re  Re1       1.0  0.9044208724908589  0.8601995393460616  0.7450142268451952  1.0000
  Re  Re2       1.0  0.2260629539413974  0.2612855197353803  0.3028384350391035  1.0000
  C   C1        1.0  0.41531650398124825  0.5766129463823175  0.3392839475183436  1.0000
  C   C2        1.0  0.17319333642257617  0.9119840005111026  0.8574440376220007  1.0000
  C   C3        1.0  0.4043372897993259  0.3294996984964308  0.1632983440781901  1.0000
  C   C4        1.0  0.4671866529387372  0.2500988558785355  0.40033289565198316  1.0000
  C   C5        1.0  0.671220201949057  0.8093199011706548  0.8703216519850007  1.0000
  C   C6        1.0  0.7885546905053968  0.5572428146456743  0.7585725872763291  1.0000
  C   C7        1.0  0.11137627947146589  0.16472754936713052  0.7077571352634869  1.0000
  C   C8        1.0  0.9980535604146398  0.08343400931168121  0.41845549289693057  1.0000
  C   C9        1.0  0.03650258502901593  0.6809544446624595  0.5925534556716184  1.0000
  C   C10       1.0  0.10536377216085414  0.9451463886875979  0.25507400944312797  1.0000
  I   I1        1.0  0.5558134265669606  0.9389254548689527  0.6827975343604749  1.0000
  I   I2        1.0  0.9721959728584413  0.37525106149309195  0.14965248510365092  1.0000
  O   O1        1.0  0.2608527027557339  0.9910038964415124  0.9391960766157648  1.0000
  O   O2        1.0  0.23167501955279324  0.29704916188689023  0.6487256169219605  1.0000
  O   O3        1.0  0.9961342627933731  0.795896291135338  0.21083934062113724  1.0000
  O   O4        1.0  0.7909439284391593  0.38793606700754746  0.7750337704331929  1.0000
  O   O5        1.0  0.5519695530880483  0.7226404002510303  0.34052314583452736  1.0000
  O   O6        1.0  0.8398435064720172  0.025131982866851255  0.4676103924674446  1.0000
  O   O7        1.0  0.5447805259000049  0.4114995874345877  0.09652712218442262  1.0000
  O   O8        1.0  0.564397233594609  0.7537394206068933  0.9582066821876304  1.0000
  O   O9        1.0  0.1419400960887498  0.6134225975608052  0.5315559570882739  1.0000
  O   O10       1.0  0.6024268497159464  0.2302993553031903  0.464852283368208  1.0000
data_image126
_chemical_formula_structural       Re2C10I2O10
_chemical_formula_sum              "Re2 C10 I2 O10"
_cell_length_a       6.7806348447214
_cell_length_b       6.7806348447214
_cell_length_c       10.993743
_cell_angle_alpha    90.0
_cell_angle_beta     90.0
_cell_angle_gamma    110.32517840843863

_space_group_name_H-M_alt    "P 1"
_space_group_IT_number       1

loop_
  _space_group_symop_operation_xyz
  'x, y, z'

loop_
  _atom_site_type_symbol
  _atom_site_label
  _atom_site_symmetry_multiplicity
  _atom_site_fract_x
  _atom_site_fract_y
  _atom_site_fract_z
  _atom_site_occupancy
  Re  Re1       1.0  0.9112017628680872  0.8377136923628055  0.7332130548551948  1.0000
  Re  Re2       1.0  0.23597843602487942  0.23205821421399808  0.29565879675680523  1.0000
  C   C1        1.0  0.3527594117988079  0.5511399072622833  0.31774432130538965  1.0000
  C   C2        1.0  0.1267288154983086  0.8299288567963583  0.880967282903735  1.0000
  C   C3        1.0  0.3948182626153469  0.33953858942936094  0.16077122249668915  1.0000
  C   C4        1.0  0.37194266672212095  0.2540434372126593  0.46818261999087424  1.0000
  C   C5        1.0  0.8246689893211447  0.9562161455298079  0.8765827832855391  1.0000
  C   C6        1.0  0.8042218167520263  0.5474764170771306  0.6722218890040287  1.0000
  C   C7        1.0  0.014793633136391815  0.15738159139361452  0.759269564111659  1.0000
  C   C8        1.0  0.9494235552319589  0.1581732700794627  0.37524813053363537  1.0000
  C   C9        1.0  0.009011664368402394  0.8152037783010694  0.5152415573028066  1.0000
  C   C10       1.0  0.06974740952678975  0.9263575532850199  0.24084875190528146  1.0000
  I   I1        1.0  0.5612410724830741  0.8745999542644001  0.7050358708542818  1.0000
  I   I2        1.0  0.9867396776845656  0.4262210815093792  0.172399457060532  1.0000
  O   O1        1.0  0.2581169042738982  0.8742471651823797  0.9501748968080208  1.0000
  O   O2        1.0  0.15205130219920004  0.28429407406869833  0.7115368337869494  1.0000
  O   O3        1.0  0.9239283450886353  0.8405873136765634  0.1956213393149879  1.0000
  O   O4        1.0  0.8440710959495481  0.3970992620672892  0.6356542987863578  1.0000
  O   O5        1.0  0.4541274316737389  0.721942724010679  0.3326118302328955  1.0000
  O   O6        1.0  0.8469946112235321  0.1932697482396597  0.44919215205703117  1.0000
  O   O7        1.0  0.5127341667022695  0.42321497134786223  0.08539907380095914  1.0000
  O   O8        1.0  0.7873515417378827  0.004027394318270243  0.9807083082169697  1.0000
  O   O9        1.0  0.15399413923114946  0.7817816918333856  0.4735917029592463  1.0000
  O   O10       1.0  0.4234774466003264  0.22271997817001452  0.5616691941968115  1.0000
data_image127
_chemical_formula_structural       Re2C10I2O10
_chemical_formula_sum              "Re2 C10 I2 O10"
_cell_length_a       6.7806348447214
_cell_length_b       6.7806348447214
_cell_length_c       10.993743
_cell_angle_alpha    90.0
_cell_angle_beta     90.0
_cell_angle_gamma    110.32517840843863

_space_group_name_H-M_alt    "P 1"
_space_group_IT_number       1

loop_
  _space_group_symop_operation_xyz
  'x, y, z'

loop_
  _atom_site_type_symbol
  _atom_site_label
  _atom_site_symmetry_multiplicity
  _atom_site_fract_x
  _atom_site_fract_y
  _atom_site_fract_z
  _atom_site_occupancy
  Re  Re1       1.0  0.9503235169694981  0.8373242407339466  0.7469024764033353  1.0000
  Re  Re2       1.0  0.2892891243134604  0.26337423405418264  0.2864290425305493  1.0000
  C   C1        1.0  0.3813313228236192  0.541480795819679  0.37391223798743806  1.0000
  C   C2        1.0  0.06867705995928608  0.7111402006114934  0.8696939386031298  1.0000
  C   C3        1.0  0.41214918701768466  0.3413663488004095  0.1340983677265702  1.0000
  C   C4        1.0  0.3753104192068989  0.19246948169485328  0.4527935680558423  1.0000
  C   C5        1.0  0.8935045550360825  0.9738512692838207  0.9010630119234667  1.0000
  C   C6        1.0  0.7369260464149414  0.5314279882867977  0.7010184548003394  1.0000
  C   C7        1.0  0.06816338762137919  0.20065189205834866  0.7486751371230768  1.0000
  C   C8        1.0  0.9741905950975855  0.22016161117784683  0.34021334901865524  1.0000
  C   C9        1.0  0.006435692373555124  0.8562902996761581  0.5623838852578041  1.0000
  C   C10       1.0  0.10815650307831505  0.9935300019822442  0.22257141476576198  1.0000
  I   I1        1.0  0.5040235883965143  0.8429462913965605  0.6972478070699648  1.0000
  I   I2        1.0  0.936558553618854  0.43115814204812564  0.15568098426783394  1.0000
  O   O1        1.0  0.16207500032710276  0.6476204309502138  0.9354815438709454  1.0000
  O   O2        1.0  0.14282598361916898  0.3800000246492672  0.7522815542778919  1.0000
  O   O3        1.0  0.02286920833469461  0.8782259508387902  0.14331901570607872  1.0000
  O   O4        1.0  0.6822800183682229  0.33733732123050236  0.706556454861602  1.0000
  O   O5        1.0  0.41907041423957514  0.6727645793527894  0.4474861499008699  1.0000
  O   O6        1.0  0.8272063178741855  0.17532145368858254  0.409362765711205  1.0000
  O   O7        1.0  0.5615429159043934  0.4521685357521267  0.08081787159048108  1.0000
  O   O8        1.0  0.8442283346857586  0.05326019212305941  0.9961135857613654  1.0000
  O   O9        1.0  0.9590599745796103  0.839957038693584  0.46662830487414525  1.0000
  O   O10       1.0  0.40450697648938005  0.10655008819606937  0.5403723291346566  1.0000
data_image128
_chemical_formula_structural       Re2C10I2O10
_chemical_formula_sum              "Re2 C10 I2 O10"
_cell_length_a       6.7806348447214
_cell_length_b       6.7806348447214
_cell_length_c       10.993743
_cell_angle_alpha    90.0
_cell_angle_beta     90.0
_cell_angle_gamma    110.32517840843863

_space_group_name_H-M_alt    "P 1"
_space_group_IT_number       1

loop_
  _space_group_symop_operation_xyz
  'x, y, z'

loop_
  _atom_site_type_symbol
  _atom_site_label
  _atom_site_symmetry_multiplicity
  _atom_site_fract_x
  _atom_site_fract_y
  _atom_site_fract_z
  _atom_site_occupancy
  Re  Re1       1.0  0.9606446705261227  0.8329021827226233  0.77606925068967  1.0000
  Re  Re2       1.0  0.28515612058263107  0.30176990991922636  0.2723201251777535  1.0000
  C   C1        1.0  0.3948593674258785  0.5908114711233028  0.3764458947413504  1.0000
  C   C2        1.0  0.17337334816831107  0.7418524817596057  0.8793654168403416  1.0000
  C   C3        1.0  0.4925836314171136  0.474410521021722  0.16539445739903325  1.0000
  C   C4        1.0  0.4371955645642157  0.20772274933666818  0.39184209406079396  1.0000
  C   C5        1.0  0.8263705341127408  0.9421442347118029  0.8886907864150979  1.0000
  C   C6        1.0  0.6957786797151695  0.5893165061745361  0.8046639196286255  1.0000
  C   C7        1.0  0.12632754676873015  0.15362319164800042  0.7083763401742164  1.0000
  C   C8        1.0  0.02953835319596989  0.2537216605103638  0.3536723676912597  1.0000
  C   C9        1.0  0.9498880198093664  0.8616625340373459  0.592883666271866  1.0000
  C   C10       1.0  0.14292457719886642  0.9998493933332995  0.21746376069389892  1.0000
  I   I1        1.0  0.46562917604536425  0.8347135127709842  0.7137858829619866  1.0000
  I   I2        1.0  0.9337899135163971  0.34446407123975364  0.11220505202653003  1.0000
  O   O1        1.0  0.27933037595602106  0.7015093823415361  0.957004168007983  1.0000
  O   O2        1.0  0.1278261217202603  0.3173725828344509  0.6793779827886882  1.0000
  O   O3        1.0  0.10538733102236032  0.8513229121082182  0.16312081341205178  1.0000
  O   O4        1.0  0.5238158544546346  0.44629859213468676  0.8207335539861724  1.0000
  O   O5        1.0  0.4304766697585618  0.7443900761801148  0.4380590112950329  1.0000
  O   O6        1.0  0.9209213335517279  0.18138064635158213  0.43334005577161033  1.0000
  O   O7        1.0  0.616474086879271  0.5771260654522133  0.1035012999095877  1.0000
  O   O8        1.0  0.6961145250377099  0.9795951422398432  0.9458091821408082  1.0000
  O   O9        1.0  0.8933556042242388  0.8290567451005723  0.4904099479730775  1.0000
  O   O10       1.0  0.5078462973499229  0.08969029616628942  0.42978528021819373  1.0000
data_image129
_chemical_formula_structural       Re2C10I2O10
_chemical_formula_sum              "Re2 C10 I2 O10"
_cell_length_a       6.7806348447214
_cell_length_b       6.7806348447214
_cell_length_c       10.993743
_cell_angle_alpha    90.0
_cell_angle_beta     90.0
_cell_angle_gamma    110.32517840843863

_space_group_name_H-M_alt    "P 1"
_space_group_IT_number       1

loop_
  _space_group_symop_operation_xyz
  'x, y, z'

loop_
  _atom_site_type_symbol
  _atom_site_label
  _atom_site_symmetry_multiplicity
  _atom_site_fract_x
  _atom_site_fract_y
  _atom_site_fract_z
  _atom_site_occupancy
  Re  Re1       1.0  0.988760140378832  0.823487047526894  0.8006488134082395  1.0000
  Re  Re2       1.0  0.2258396687341727  0.34579614095619743  0.24743188428224266  1.0000
  C   C1        1.0  0.37289082904952153  0.6136379493455117  0.33543340624898743  1.0000
  C   C2        1.0  0.15447926046140292  0.708755119426061  0.9008158061036267  1.0000
  C   C3        1.0  0.5123887241423077  0.4756179540046994  0.1950610719940175  1.0000
  C   C4        1.0  0.3802649542661414  0.20129406142374742  0.34732775003921673  1.0000
  C   C5        1.0  0.8004469063751698  0.9315020110464884  0.9018911352103185  1.0000
  C   C6        1.0  0.7375300658002483  0.5746038059470907  0.8562871308939497  1.0000
  C   C7        1.0  0.1639206023373383  0.11687942044439814  0.7300262272974603  1.0000
  C   C8        1.0  0.033578810965586736  0.23505439265531525  0.40156061459908465  1.0000
  C   C9        1.0  0.9884800686865339  0.7444241020977034  0.632087508472504  1.0000
  C   C10       1.0  0.13622171205286687  0.05908568643907497  0.16253484255810152  1.0000
  I   I1        1.0  0.4591293102664412  0.8433797990865098  0.6775673819050451  1.0000
  I   I2        1.0  0.9366147904574156  0.3222260598781026  0.10753651016717818  1.0000
  O   O1        1.0  0.29630404366234986  0.6853073765623672  0.956859504845072  1.0000
  O   O2        1.0  0.20950718183740813  0.2797965543814265  0.6941118582929116  1.0000
  O   O3        1.0  0.1424254025923577  0.8894924301207419  0.1328723139261461  1.0000
  O   O4        1.0  0.5772169331777857  0.447313550863141  0.9102316821628201  1.0000
  O   O5        1.0  0.43300550153466577  0.6553279880292942  0.4405020801002643  1.0000
  O   O6        1.0  0.9218123870561789  0.18002082128320618  0.4882987636713379  1.0000
  O   O7        1.0  0.6659950284311138  0.6190260621662227  0.20356363836162347  1.0000
  O   O8        1.0  0.6845181826277456  0.9779776549063536  0.9650652812246169  1.0000
  O   O9        1.0  0.06861454483407825  0.6991311991095749  0.5438102894650558  1.0000
  O   O10       1.0  0.4794954624922543  0.10063622547320428  0.39003216307590566  1.0000
data_image130
_chemical_formula_structural       Re2C10I2O10
_chemical_formula_sum              "Re2 C10 I2 O10"
_cell_length_a       6.7806348447214
_cell_length_b       6.7806348447214
_cell_length_c       10.993743
_cell_angle_alpha    90.0
_cell_angle_beta     90.0
_cell_angle_gamma    110.32517840843863

_space_group_name_H-M_alt    "P 1"
_space_group_IT_number       1

loop_
  _space_group_symop_operation_xyz
  'x, y, z'

loop_
  _atom_site_type_symbol
  _atom_site_label
  _atom_site_symmetry_multiplicity
  _atom_site_fract_x
  _atom_site_fract_y
  _atom_site_fract_z
  _atom_site_occupancy
  Re  Re1       1.0  0.014520044585407232  0.8521792325680021  0.7835907422177358  1.0000
  Re  Re2       1.0  0.18605603627188785  0.28686808041347994  0.2665585086113688  1.0000
  C   C1        1.0  0.284675611246334  0.5626726157985051  0.3560123620139355  1.0000
  C   C2        1.0  0.20072079547226296  0.7697010206842284  0.8918127044355614  1.0000
  C   C3        1.0  0.37749259689377457  0.5169151827653977  0.16094343189095336  1.0000
  C   C4        1.0  0.4222495446085698  0.20469744312511026  0.32103135281784295  1.0000
  C   C5        1.0  0.8185282504326401  0.9819354425066326  0.8686497489600962  1.0000
  C   C6        1.0  0.81552206389948  0.6011854626629236  0.8034705830697575  1.0000
  C   C7        1.0  0.19555408868913027  0.17384352819613524  0.7663149923836128  1.0000
  C   C8        1.0  0.9981375996584025  0.24170522167153807  0.4096130764444927  1.0000
  C   C9        1.0  0.9958031022057197  0.7127954704746408  0.620098876523249  1.0000
  C   C10       1.0  0.11540674342447754  0.01038544239656991  0.15971642365013347  1.0000
  I   I1        1.0  0.5391611483725373  0.8732497313958911  0.6805689129104955  1.0000
  I   I2        1.0  0.8863842388585159  0.30208507894848813  0.1382627613510943  1.0000
  O   O1        1.0  0.34201943190817996  0.7581330468422838  0.9470139967051698  1.0000
  O   O2        1.0  0.28808655236032354  0.32167131793217374  0.7336443627877927  1.0000
  O   O3        1.0  0.07161206408442572  0.8584543286457911  0.1040160270226859  1.0000
  O   O4        1.0  0.7266475803489323  0.4205974141542333  0.821215801708875  1.0000
  O   O5        1.0  0.35860091203537786  0.6309552783079853  0.45061607352551  1.0000
  O   O6        1.0  0.8540842564332306  0.1922602054194349  0.4861164659183686  1.0000
  O   O7        1.0  0.49013705266538293  0.6866000706740832  0.1626042546891015  1.0000
  O   O8        1.0  0.7642153859112051  0.07608606281876848  0.936076993257327  1.0000
  O   O9        1.0  0.981790878678032  0.6246334115278379  0.525877456117247  1.0000
  O   O10       1.0  0.5561079149313213  0.14884983983465883  0.35216911419596436  1.0000
data_image131
_chemical_formula_structural       Re2C10I2O10
_chemical_formula_sum              "Re2 C10 I2 O10"
_cell_length_a       6.7806348447214
_cell_length_b       6.7806348447214
_cell_length_c       10.993743
_cell_angle_alpha    90.0
_cell_angle_beta     90.0
_cell_angle_gamma    110.32517840843863

_space_group_name_H-M_alt    "P 1"
_space_group_IT_number       1

loop_
  _space_group_symop_operation_xyz
  'x, y, z'

loop_
  _atom_site_type_symbol
  _atom_site_label
  _atom_site_symmetry_multiplicity
  _atom_site_fract_x
  _atom_site_fract_y
  _atom_site_fract_z
  _atom_site_occupancy
  Re  Re1       1.0  0.0005040356358989584  0.8827827111826818  0.7585772047403876  1.0000
  Re  Re2       1.0  0.15039020690923896  0.22382990663171043  0.3111183101627987  1.0000
  C   C1        1.0  0.2894863083272722  0.4703059648367782  0.41266259576848696  1.0000
  C   C2        1.0  0.2132731530862122  0.8172792135128413  0.8606900755905703  1.0000
  C   C3        1.0  0.3362211588827339  0.4826359162859608  0.22230125191363084  1.0000
  C   C4        1.0  0.4306894225868767  0.1992369928530377  0.33817797521530185  1.0000
  C   C5        1.0  0.8100412403420969  0.02738837066958912  0.8430764146837489  1.0000
  C   C6        1.0  0.8386404404650003  0.6051708661371897  0.7645014092803548  1.0000
  C   C7        1.0  0.17986337760192894  0.22361450255797433  0.7411198848561958  1.0000
  C   C8        1.0  0.9680707296386535  0.20140666124135698  0.44546401464033486  1.0000
  C   C9        1.0  0.09905818879521444  0.9060298333921343  0.577789246933287  1.0000
  C   C10       1.0  0.03745786053312964  0.9579308365692041  0.17011873881186243  1.0000
  I   I1        1.0  0.6360265391194827  0.8486744058186761  0.6702538203644272  1.0000
  I   I2        1.0  0.8988220433464912  0.331262164867943  0.12796142158292376  1.0000
  O   O1        1.0  0.3467180924714339  0.7767613742516943  0.9047078244121406  1.0000
  O   O2        1.0  0.17578545958440284  0.3957336170622632  0.7112443805728343  1.0000
  O   O3        1.0  0.9657360337927647  0.8164058567918933  0.1095161255988379  1.0000
  O   O4        1.0  0.7396254427574498  0.42734616536790954  0.7634014060193766  1.0000
  O   O5        1.0  0.28909771144710444  0.6326512039869343  0.4481333155652275  1.0000
  O   O6        1.0  0.9193555610703947  0.16418952304583034  0.5499632681423174  1.0000
  O   O7        1.0  0.3869506662946288  0.64271329090754  0.177332649714142  1.0000
  O   O8        1.0  0.743031614184424  0.09827062981241483  0.9226921957931014  1.0000
  O   O9        1.0  0.024219802229352716  0.8604625576688063  0.4726048404181138  1.0000
  O   O10       1.0  0.5665239148095886  0.16823499266876688  0.3848292723726339  1.0000
data_image132
_chemical_formula_structural       Re2C10I2O10
_chemical_formula_sum              "Re2 C10 I2 O10"
_cell_length_a       6.7806348447214
_cell_length_b       6.7806348447214
_cell_length_c       10.993743
_cell_angle_alpha    90.0
_cell_angle_beta     90.0
_cell_angle_gamma    110.32517840843863

_space_group_name_H-M_alt    "P 1"
_space_group_IT_number       1

loop_
  _space_group_symop_operation_xyz
  'x, y, z'

loop_
  _atom_site_type_symbol
  _atom_site_label
  _atom_site_symmetry_multiplicity
  _atom_site_fract_x
  _atom_site_fract_y
  _atom_site_fract_z
  _atom_site_occupancy
  Re  Re1       1.0  0.010264684193863394  0.9257281329910058  0.7643614530419286  1.0000
  Re  Re2       1.0  0.16615963550886556  0.2209293008936533  0.3225110879144668  1.0000
  C   C1        1.0  0.29557018413164693  0.45530828582029925  0.4094664703765368  1.0000
  C   C2        1.0  0.20932434955503298  0.8017733356661247  0.8358331051305428  1.0000
  C   C3        1.0  0.32628333332631987  0.4562826959782457  0.216737063670926  1.0000
  C   C4        1.0  0.45057196763697127  0.2217126292523331  0.3598422424940458  1.0000
  C   C5        1.0  0.8661158439062395  0.08365228990249134  0.8318086711889671  1.0000
  C   C6        1.0  0.7810050414771096  0.5365822328127062  0.683611947565979  1.0000
  C   C7        1.0  0.1272973489649165  0.2051596074061819  0.7059865244415476  1.0000
  C   C8        1.0  0.9297350641891191  0.23230171830151325  0.4388225655358118  1.0000
  C   C9        1.0  0.04662869092400457  0.8256652676655462  0.5843494358664512  1.0000
  C   C10       1.0  0.9704925587300773  0.8782027064125963  0.19984440583390414  1.0000
  I   I1        1.0  0.6620731666996122  0.8282513042989916  0.6501515468271399  1.0000
  I   I2        1.0  0.8923893025766647  0.33494306988591616  0.13988071273716965  1.0000
  O   O1        1.0  0.3048542051710772  0.7016438023421113  0.8481501292748321  1.0000
  O   O2        1.0  0.12452666750336139  0.3756842693692364  0.717493307062769  1.0000
  O   O3        1.0  0.8095790210851512  0.7427994505223496  0.23547027427790937  1.0000
  O   O4        1.0  0.6209555840944856  0.4084582454045188  0.6863068247347851  1.0000
  O   O5        1.0  0.3193086415095634  0.6019063296881264  0.46091278478761294  1.0000
  O   O6        1.0  0.8940522639113575  0.2581652586678038  0.5393018702724581  1.0000
  O   O7        1.0  0.4108158964356689  0.5992724353354439  0.1530786347195877  1.0000
  O   O8        1.0  0.7579857477919711  0.16936833095172438  0.8698417185018175  1.0000
  O   O9        1.0  0.9905493977385028  0.7064594477445998  0.49513220245440315  1.0000
  O   O10       1.0  0.6126397051617933  0.21310148397591347  0.38657293357494243  1.0000
data_image133
_chemical_formula_structural       Re2C10I2O10
_chemical_formula_sum              "Re2 C10 I2 O10"
_cell_length_a       6.7806348447214
_cell_length_b       6.7806348447214
_cell_length_c       10.993743
_cell_angle_alpha    90.0
_cell_angle_beta     90.0
_cell_angle_gamma    110.32517840843863

_space_group_name_H-M_alt    "P 1"
_space_group_IT_number       1

loop_
  _space_group_symop_operation_xyz
  'x, y, z'

loop_
  _atom_site_type_symbol
  _atom_site_label
  _atom_site_symmetry_multiplicity
  _atom_site_fract_x
  _atom_site_fract_y
  _atom_site_fract_z
  _atom_site_occupancy
  Re  Re1       1.0  0.02729312439294973  0.8698827094230687  0.7791257147346851  1.0000
  Re  Re2       1.0  0.18491506937848096  0.2808091147850689  0.2833443925816398  1.0000
  C   C1        1.0  0.26414360638144563  0.5000408255928412  0.39301618399020255  1.0000
  C   C2        1.0  0.2289195121344616  0.8406091886735237  0.8949656222612932  1.0000
  C   C3        1.0  0.36161696539414656  0.4785764648756045  0.1582869309118837  1.0000
  C   C4        1.0  0.32209293680228046  0.1211036535016659  0.35494692708220443  1.0000
  C   C5        1.0  0.9122767857413985  0.11682104321597561  0.8693975803348885  1.0000
  C   C6        1.0  0.576481884612889  0.500718534528168  0.7912924269461227  1.0000
  C   C7        1.0  0.19363956201213295  0.14457886879842508  0.7226483196727231  1.0000
  C   C8        1.0  0.9579077241146785  0.2565217685999013  0.40220708331116695  1.0000
  C   C9        1.0  0.053551550528222025  0.7717622006791602  0.6186285472846819  1.0000
  C   C10       1.0  0.9496459542930624  0.6936380518571161  0.26424124532915794  1.0000
  I   I1        1.0  0.6361413209169013  0.9102967739315659  0.6334679063713814  1.0000
  I   I2        1.0  0.8423018685731773  0.25953927108011143  0.16457006180388276  1.0000
  O   O1        1.0  0.3744016414713047  0.8079861286430755  0.9323113200835224  1.0000
  O   O2        1.0  0.25750402883819934  0.34085114478607426  0.717318992995269  1.0000
  O   O3        1.0  0.855619730603955  0.7943603347311239  0.28634757433938424  1.0000
  O   O4        1.0  0.6505264699999602  0.38951205460228866  0.7477559087775904  1.0000
  O   O5        1.0  0.3636846441904894  0.6816333929740157  0.3982744321082293  1.0000
  O   O6        1.0  0.8790815134238033  0.24969858801028688  0.4894204095253357  1.0000
  O   O7        1.0  0.45948699496767775  0.6362099003779015  0.1285744810521107  1.0000
  O   O8        1.0  0.8404470910349213  0.25003198254853837  0.8826284286278796  1.0000
  O   O9        1.0  0.0773218923143617  0.7287664279841413  0.5195360460253061  1.0000
  O   O10       1.0  0.41296910675771614  0.0021431274525171655  0.37139651929639494  1.0000
data_image134
_chemical_formula_structural       Re2C10I2O10
_chemical_formula_sum              "Re2 C10 I2 O10"
_cell_length_a       6.7806348447214
_cell_length_b       6.7806348447214
_cell_length_c       10.993743
_cell_angle_alpha    90.0
_cell_angle_beta     90.0
_cell_angle_gamma    110.32517840843863

_space_group_name_H-M_alt    "P 1"
_space_group_IT_number       1

loop_
  _space_group_symop_operation_xyz
  'x, y, z'

loop_
  _atom_site_type_symbol
  _atom_site_label
  _atom_site_symmetry_multiplicity
  _atom_site_fract_x
  _atom_site_fract_y
  _atom_site_fract_z
  _atom_site_occupancy
  Re  Re1       1.0  0.014570335335905904  0.8494277063112062  0.800180334489999  1.0000
  Re  Re2       1.0  0.19570947961815022  0.34100714020854084  0.2385923814628158  1.0000
  C   C1        1.0  0.43381404288608116  0.4752358595167019  0.3550247842865276  1.0000
  C   C2        1.0  0.2577803161255323  0.8956149267435467  0.8871758267141778  1.0000
  C   C3        1.0  0.4054544833430343  0.5125763291569283  0.12287775085786513  1.0000
  C   C4        1.0  0.3453852126510578  0.1667001952783025  0.32022757146816644  1.0000
  C   C5        1.0  0.894243636937059  0.10380313364704848  0.8861018602055699  1.0000
  C   C6        1.0  0.7768500658719629  0.6500817903089808  0.9007100967485085  1.0000
  C   C7        1.0  0.14609060734921142  0.11889341202736858  0.7138413387533769  1.0000
  C   C8        1.0  0.04153534377297465  0.39570851069623036  0.3858750116749104  1.0000
  C   C9        1.0  0.08340010896643424  0.7177078755718054  0.6558183815896457  1.0000
  C   C10       1.0  0.9977723553035049  0.7565341190116597  0.24581426397272896  1.0000
  I   I1        1.0  0.5921579144685241  0.8750406668203505  0.6341912222681282  1.0000
  I   I2        1.0  0.7795566601926704  0.15396723045820349  0.1770329084027481  1.0000
  O   O1        1.0  0.45670798953497305  0.9781967433681984  0.9104723403665066  1.0000
  O   O2        1.0  0.23975246523492677  0.26018569955729265  0.6505615094780398  1.0000
  O   O3        1.0  0.9219838901907597  0.7741713046045575  0.3458547515106038  1.0000
  O   O4        1.0  0.5980189868240351  0.5941977757731001  0.8909100235805695  1.0000
  O   O5        1.0  0.5310280516950612  0.5700971371164323  0.43756432363539355  1.0000
  O   O6        1.0  0.9741121828035255  0.39736321434648136  0.47902021053468385  1.0000
  O   O7        1.0  0.47424144160076515  0.6689043938718503  0.08601569011428015  1.0000
  O   O8        1.0  0.8216293866774627  0.23286680220077344  0.9138870694131771  1.0000
  O   O9        1.0  0.16341577442157806  0.7251348268107011  0.5643931162269787  1.0000
  O   O10       1.0  0.4291159392715914  0.05704173641651148  0.35161659736573697  1.0000
data_image135
_chemical_formula_structural       Re2C10I2O10
_chemical_formula_sum              "Re2 C10 I2 O10"
_cell_length_a       6.7806348447214
_cell_length_b       6.7806348447214
_cell_length_c       10.993743
_cell_angle_alpha    90.0
_cell_angle_beta     90.0
_cell_angle_gamma    110.32517840843863

_space_group_name_H-M_alt    "P 1"
_space_group_IT_number       1

loop_
  _space_group_symop_operation_xyz
  'x, y, z'

loop_
  _atom_site_type_symbol
  _atom_site_label
  _atom_site_symmetry_multiplicity
  _atom_site_fract_x
  _atom_site_fract_y
  _atom_site_fract_z
  _atom_site_occupancy
  Re  Re1       1.0  0.9477725368938904  0.897698217260075  0.8044731995964431  1.0000
  Re  Re2       1.0  0.20602631272975575  0.3293974044666525  0.23499366350121473  1.0000
  C   C1        1.0  0.44979596470466826  0.4999207235937728  0.35408994694150575  1.0000
  C   C2        1.0  0.20523641324274156  0.9501096865945526  0.9094975461954382  1.0000
  C   C3        1.0  0.4174902118330741  0.5944343902471324  0.14218373715070148  1.0000
  C   C4        1.0  0.32313433124728763  0.14909968253624364  0.3347735660265942  1.0000
  C   C5        1.0  0.9720878475561057  0.21518047258628542  0.8640076717917807  1.0000
  C   C6        1.0  0.7412983168848661  0.6114691552668368  0.8482366332589756  1.0000
  C   C7        1.0  0.12697456808349017  0.15699378723016189  0.6857792178884902  1.0000
  C   C8        1.0  0.045911256894381136  0.36584974192983255  0.363686377415984  1.0000
  C   C9        1.0  0.08922496460205753  0.7377390907256859  0.7168550676005191  1.0000
  C   C10       1.0  0.9333236857723948  0.8028227916338511  0.30088320427344956  1.0000
  I   I1        1.0  0.6626265028295012  0.8966470023249218  0.6359723839058041  1.0000
  I   I2        1.0  0.794946784011042  0.09629668797934265  0.17096067229573877  1.0000
  O   O1        1.0  0.292758110402876  0.9548322149666817  0.0064185484601644305  1.0000
  O   O2        1.0  0.13628333587613817  0.1731693861812338  0.5814656491426687  1.0000
  O   O3        1.0  0.9629394533871078  0.6882974203062626  0.3642426143263044  1.0000
  O   O4        1.0  0.6064465129563044  0.442351006080637  0.8840185540582894  1.0000
  O   O5        1.0  0.5988703479597718  0.5066645462378356  0.40548576725804275  1.0000
  O   O6        1.0  0.9413304257937329  0.3210087156843542  0.4418941286160151  1.0000
  O   O7        1.0  0.5332806943485171  0.7303961244425964  0.098063099380836  1.0000
  O   O8        1.0  0.02755404606733114  0.3972113047728574  0.8771514224158984  1.0000
  O   O9        1.0  0.12944511478940646  0.6435313933268244  0.6439843204040152  1.0000
  O   O10       1.0  0.404798984151987  0.022204675776402893  0.31704854515477127  1.0000
data_image136
_chemical_formula_structural       Re2C10I2O10
_chemical_formula_sum              "Re2 C10 I2 O10"
_cell_length_a       6.7806348447214
_cell_length_b       6.7806348447214
_cell_length_c       10.993743
_cell_angle_alpha    90.0
_cell_angle_beta     90.0
_cell_angle_gamma    110.32517840843863

_space_group_name_H-M_alt    "P 1"
_space_group_IT_number       1

loop_
  _space_group_symop_operation_xyz
  'x, y, z'

loop_
  _atom_site_type_symbol
  _atom_site_label
  _atom_site_symmetry_multiplicity
  _atom_site_fract_x
  _atom_site_fract_y
  _atom_site_fract_z
  _atom_site_occupancy
  Re  Re1       1.0  0.9446540247989502  0.8912508639694844  0.7951825382261127  1.0000
  Re  Re2       1.0  0.2043907497329415  0.33806136695939276  0.2665850608112238  1.0000
  C   C1        1.0  0.412922546955451  0.5130422425839305  0.3909097324532329  1.0000
  C   C2        1.0  0.059016358448996  0.8374839956475925  0.9514652182714766  1.0000
  C   C3        1.0  0.38600416194823073  0.46393454531479045  0.12706812487751348  1.0000
  C   C4        1.0  0.34745023223919547  0.12390389417232027  0.2434517616404929  1.0000
  C   C5        1.0  0.06642429113612991  0.15323070669087208  0.8865454609022855  1.0000
  C   C6        1.0  0.612642091425547  0.6754225846009145  0.7833798771410754  1.0000
  C   C7        1.0  0.192206815094766  0.08985752797712387  0.6973684091189023  1.0000
  C   C8        1.0  0.9842050821985173  0.2645059008652846  0.3804846998093175  1.0000
  C   C9        1.0  0.0395363334417238  0.6833733297796806  0.7344638302012474  1.0000
  C   C10       1.0  0.014133058712701  0.8236623400302676  0.25058510219882957  1.0000
  I   I1        1.0  0.6611791426895508  0.9658311096998228  0.6440600968018357  1.0000
  I   I2        1.0  0.8498997896574939  0.13401515425896415  0.1468651995377348  1.0000
  O   O1        1.0  0.12275921627206765  0.8199331639357137  0.03869451378616717  1.0000
  O   O2        1.0  0.30970056049731687  0.1782841474748058  0.6232601076795116  1.0000
  O   O3        1.0  0.9843048632443193  0.71892588970997  0.3307514018454364  1.0000
  O   O4        1.0  0.47598039917920887  0.5126765654365879  0.7694233453870172  1.0000
  O   O5        1.0  0.5441668195562168  0.5228428221291823  0.4637867181418459  1.0000
  O   O6        1.0  0.8803541851091594  0.22485208178611504  0.4544122232223975  1.0000
  O   O7        1.0  0.481551778299612  0.49828709180057545  0.031938837573203496  1.0000
  O   O8        1.0  0.11990009475314167  0.3083976020951663  0.9421047954851883  1.0000
  O   O9        1.0  0.0881687394360604  0.5718105627235027  0.6716668573429336  1.0000
  O   O10       1.0  0.3996155163178975  0.9839253314843247  0.21312147719149022  1.0000
data_image137
_chemical_formula_structural       Re2C10I2O10
_chemical_formula_sum              "Re2 C10 I2 O10"
_cell_length_a       6.7806348447214
_cell_length_b       6.7806348447214
_cell_length_c       10.993743
_cell_angle_alpha    90.0
_cell_angle_beta     90.0
_cell_angle_gamma    110.32517840843863

_space_group_name_H-M_alt    "P 1"
_space_group_IT_number       1

loop_
  _space_group_symop_operation_xyz
  'x, y, z'

loop_
  _atom_site_type_symbol
  _atom_site_label
  _atom_site_symmetry_multiplicity
  _atom_site_fract_x
  _atom_site_fract_y
  _atom_site_fract_z
  _atom_site_occupancy
  Re  Re1       1.0  0.9301054341814571  0.8099971831395866  0.790184598991655  1.0000
  Re  Re2       1.0  0.24026559688742788  0.3425300034820731  0.27207450204852324  1.0000
  C   C1        1.0  0.3708085235472667  0.5494064542408317  0.41969016835490647  1.0000
  C   C2        1.0  0.0029594874829093065  0.6636026988765797  0.9274575589731435  1.0000
  C   C3        1.0  0.4309397987543813  0.5217252828729951  0.14907994628362664  1.0000
  C   C4        1.0  0.387790985255817  0.1472582125781808  0.2787831381832805  1.0000
  C   C5        1.0  0.0408794724002548  0.13271680883641412  0.8315055971955783  1.0000
  C   C6        1.0  0.6254222687982196  0.7250765728910771  0.7222809646170496  1.0000
  C   C7        1.0  0.17391095391591183  0.021525179399987326  0.710445737229466  1.0000
  C   C8        1.0  0.9860830115516949  0.22213115702305686  0.3884190177276395  1.0000
  C   C9        1.0  0.9331578593569968  0.5541510405961516  0.6994269476174326  1.0000
  C   C10       1.0  0.7923173859959778  0.7124283136206613  0.3870885352044256  1.0000
  I   I1        1.0  0.6645370726805336  0.055789086102296936  0.656759170977269  1.0000
  I   I2        1.0  0.9094808248433556  0.21483096105303046  0.13141581243464143  1.0000
  O   O1        1.0  0.005282749379678986  0.5984336357814406  0.0246191100064177  1.0000
  O   O2        1.0  0.2568237775001476  0.16564888324189875  0.6448871938021485  1.0000
  O   O3        1.0  0.9063895484688826  0.781553757701474  0.3024331259281733  1.0000
  O   O4        1.0  0.475511990390178  0.5850851667967129  0.7567759630038087  1.0000
  O   O5        1.0  0.4190874896351083  0.5492319089648126  0.5168453619983993  1.0000
  O   O6        1.0  0.8281370769151613  0.16454041616309656  0.44094653057265265  1.0000
  O   O7        1.0  0.5255127298589278  0.5633237264469194  0.06887876908197448  1.0000
  O   O8        1.0  0.1002738512070609  0.3022463817761326  0.8485153119284996  1.0000
  O   O9        1.0  0.9686099562848733  0.4452820270150072  0.6288799984335316  1.0000
  O   O10       1.0  0.45019295643341783  0.015800856085199138  0.27446074882711824  1.0000
data_image138
_chemical_formula_structural       Re2C10I2O10
_chemical_formula_sum              "Re2 C10 I2 O10"
_cell_length_a       6.7806348447214
_cell_length_b       6.7806348447214
_cell_length_c       10.993743
_cell_angle_alpha    90.0
_cell_angle_beta     90.0
_cell_angle_gamma    110.32517840843863

_space_group_name_H-M_alt    "P 1"
_space_group_IT_number       1

loop_
  _space_group_symop_operation_xyz
  'x, y, z'

loop_
  _atom_site_type_symbol
  _atom_site_label
  _atom_site_symmetry_multiplicity
  _atom_site_fract_x
  _atom_site_fract_y
  _atom_site_fract_z
  _atom_site_occupancy
  Re  Re1       1.0  0.9174300358589976  0.8317584726651015  0.7310998667632584  1.0000
  Re  Re2       1.0  0.24508503466475964  0.3225396378398749  0.3096718747659275  1.0000
  C   C1        1.0  0.4436496259361882  0.42996282013228715  0.45615789524597455  1.0000
  C   C2        1.0  0.05428186794259071  0.744279043344058  0.8791539059204967  1.0000
  C   C3        1.0  0.4362643925579358  0.5174335595789183  0.18180844985900954  1.0000
  C   C4        1.0  0.234714949285305  0.021862573283067198  0.30648879957853353  1.0000
  C   C5        1.0  0.024622483680883267  0.09072138143639322  0.8309138652767462  1.0000
  C   C6        1.0  0.6291123929690834  0.6672098858401855  0.7978223813789953  1.0000
  C   C7        1.0  0.16599412991887652  0.01702912063090123  0.610762345059861  1.0000
  C   C8        1.0  0.9694184316795883  0.2637392297450347  0.35038606923723437  1.0000
  C   C9        1.0  0.01294140828974455  0.6597234702582115  0.6102799154406348  1.0000
  C   C10       1.0  0.8226443122070919  0.7968456324464539  0.4137615142427335  1.0000
  I   I1        1.0  0.7064508229753585  0.10960931339479019  0.7262741865070078  1.0000
  I   I2        1.0  0.8628617740354226  0.16104148818137576  0.0965379994683805  1.0000
  O   O1        1.0  0.09626297692616537  0.7855386207958841  0.9818249895669496  1.0000
  O   O2        1.0  0.31673786966327633  0.08376917478732748  0.5517988473341333  1.0000
  O   O3        1.0  0.812685380931687  0.66160445624783  0.34597638424172017  1.0000
  O   O4        1.0  0.5033156062387302  0.6422552989837064  0.8703693520199699  1.0000
  O   O5        1.0  0.5314332352451081  0.4600682430945682  0.5573561481890825  1.0000
  O   O6        1.0  0.7915087505745836  0.22434006332011225  0.3750702050310489  1.0000
  O   O7        1.0  0.5235038404270651  0.6361585008499057  0.10688565194889879  1.0000
  O   O8        1.0  0.09019820089812391  0.2453671172528427  0.8795767076194783  1.0000
  O   O9        1.0  0.12200517282043921  0.581071520826177  0.5707422548530315  1.0000
  O   O10       1.0  0.23717980773802827  0.8588144095445895  0.2984684218957372  1.0000
data_image139
_chemical_formula_structural       Re2C10I2O10
_chemical_formula_sum              "Re2 C10 I2 O10"
_cell_length_a       6.7806348447214
_cell_length_b       6.7806348447214
_cell_length_c       10.993743
_cell_angle_alpha    90.0
_cell_angle_beta     90.0
_cell_angle_gamma    110.32517840843863

_space_group_name_H-M_alt    "P 1"
_space_group_IT_number       1

loop_
  _space_group_symop_operation_xyz
  'x, y, z'

loop_
  _atom_site_type_symbol
  _atom_site_label
  _atom_site_symmetry_multiplicity
  _atom_site_fract_x
  _atom_site_fract_y
  _atom_site_fract_z
  _atom_site_occupancy
  Re  Re1       1.0  0.9438762195185124  0.8660673499159063  0.7072291883605306  1.0000
  Re  Re2       1.0  0.2598756902282724  0.2955939272064503  0.32030721504310017  1.0000
  C   C1        1.0  0.4773506049617072  0.4031287792936866  0.4626958138276724  1.0000
  C   C2        1.0  0.07677194796427456  0.7888010865170852  0.8442104142652949  1.0000
  C   C3        1.0  0.38892897610835697  0.43635787414547667  0.1855517590740528  1.0000
  C   C4        1.0  0.22900588358482965  0.007708381052042287  0.25644460868787616  1.0000
  C   C5        1.0  0.058307935779723596  0.17273663409094356  0.7863489456844261  1.0000
  C   C6        1.0  0.6824342678774039  0.6545802209340971  0.8037488682528389  1.0000
  C   C7        1.0  0.19575135777994435  0.9406245163736167  0.6149072528651288  1.0000
  C   C8        1.0  0.951709460556476  0.33117014142416723  0.32592717881855143  1.0000
  C   C9        1.0  0.9449365806496716  0.5859241648818801  0.6403524621392933  1.0000
  C   C10       1.0  0.6644457350001373  0.6775300673509186  0.3708692236598842  1.0000
  I   I1        1.0  0.6934881381189635  0.17403891874102628  0.745994745165712  1.0000
  I   I2        1.0  0.8299008859985176  0.11109880667345584  0.11929750357481068  1.0000
  O   O1        1.0  0.1809426400424088  0.8158792786318945  0.9328863636026373  1.0000
  O   O2        1.0  0.3270389619894072  0.9262997311873907  0.5450896648324868  1.0000
  O   O3        1.0  0.7936318199621594  0.8064520913199389  0.4233894412133307  1.0000
  O   O4        1.0  0.5744175070361748  0.5480745645220939  0.8788885054614031  1.0000
  O   O5        1.0  0.4846508313477902  0.43243934586399435  0.5716704354179138  1.0000
  O   O6        1.0  0.7891791657142602  0.33716034418758234  0.3491953856052614  1.0000
  O   O7        1.0  0.49897738318996665  0.567090050295901  0.1191469280899442  1.0000
  O   O8        1.0  0.18933192213754824  0.32616554557188315  0.8180278342799918  1.0000
  O   O9        1.0  0.03585771186325837  0.4858890423483285  0.6299969009395454  1.0000
  O   O10       1.0  0.11431703197085041  0.872861580228843  0.19910609686579625  1.0000
data_image140
_chemical_formula_structural       Re2C10I2O10
_chemical_formula_sum              "Re2 C10 I2 O10"
_cell_length_a       6.7806348447214
_cell_length_b       6.7806348447214
_cell_length_c       10.993743
_cell_angle_alpha    90.0
_cell_angle_beta     90.0
_cell_angle_gamma    110.32517840843863

_space_group_name_H-M_alt    "P 1"
_space_group_IT_number       1

loop_
  _space_group_symop_operation_xyz
  'x, y, z'

loop_
  _atom_site_type_symbol
  _atom_site_label
  _atom_site_symmetry_multiplicity
  _atom_site_fract_x
  _atom_site_fract_y
  _atom_site_fract_z
  _atom_site_occupancy
  Re  Re1       1.0  0.9986338795367612  0.917430434525182  0.7217135129844  1.0000
  Re  Re2       1.0  0.17188197680076744  0.241776361839918  0.3119887263298736  1.0000
  C   C1        1.0  0.389602152554011  0.35019465699625774  0.4424350847913031  1.0000
  C   C2        1.0  0.14665422970725928  0.7633105081726821  0.8031669727667753  1.0000
  C   C3        1.0  0.4223554069158557  0.3809970504046395  0.19767571040218554  1.0000
  C   C4        1.0  0.18133858897488675  0.0028254745616797645  0.22214623881995463  1.0000
  C   C5        1.0  0.19220354375009752  0.20342842138415912  0.7725299924192764  1.0000
  C   C6        1.0  0.744782487391319  0.6881137357195116  0.8197665651564267  1.0000
  C   C7        1.0  0.24630779946992165  0.951436420871284  0.5923612063610965  1.0000
  C   C8        1.0  0.08705228320316172  0.5016399224175017  0.2631848403356694  1.0000
  C   C9        1.0  0.8935256629835328  0.6557602613683163  0.6148945482561085  1.0000
  C   C10       1.0  0.5622042322509193  0.7965877407736734  0.38872064175081217  1.0000
  I   I1        1.0  0.6848479677969235  0.11923010198335215  0.7860251770320105  1.0000
  I   I2        1.0  0.826900531034042  0.12471382551237897  0.14064598795656696  1.0000
  O   O1        1.0  0.28834212056873065  0.7262115114689337  0.8480583822845286  1.0000
  O   O2        1.0  0.34770553384642566  0.8991560317784443  0.517752003571102  1.0000
  O   O3        1.0  0.7371498033858562  0.8774748887964305  0.4080006179287965  1.0000
  O   O4        1.0  0.6363114048662986  0.6112480606575548  0.8918787814898931  1.0000
  O   O5        1.0  0.4485152531807837  0.3184238047217689  0.5348322774372695  1.0000
  O   O6        1.0  0.9938677055785773  0.6126868451905492  0.2797341662147895  1.0000
  O   O7        1.0  0.555479781163607  0.42212905535438533  0.12807013253381833  1.0000
  O   O8        1.0  0.27768142440540533  0.3715980827847534  0.7499840554267396  1.0000
  O   O9        1.0  0.8429226334271391  0.517783159317346  0.5398671993877999  1.0000
  O   O10       1.0  0.2007212766456017  0.8848474187361384  0.1404550412280176  1.0000
data_image141
_chemical_formula_structural       Re2C10I2O10
_chemical_formula_sum              "Re2 C10 I2 O10"
_cell_length_a       6.7806348447214
_cell_length_b       6.7806348447214
_cell_length_c       10.993743
_cell_angle_alpha    90.0
_cell_angle_beta     90.0
_cell_angle_gamma    110.32517840843863

_space_group_name_H-M_alt    "P 1"
_space_group_IT_number       1

loop_
  _space_group_symop_operation_xyz
  'x, y, z'

loop_
  _atom_site_type_symbol
  _atom_site_label
  _atom_site_symmetry_multiplicity
  _atom_site_fract_x
  _atom_site_fract_y
  _atom_site_fract_z
  _atom_site_occupancy
  Re  Re1       1.0  0.04638298325889312  0.9240644139361489  0.7188453172546442  1.0000
  Re  Re2       1.0  0.11672629677437145  0.26359673568283526  0.3115772192885898  1.0000
  C   C1        1.0  0.35468660619431097  0.3480209517092958  0.4268629242523782  1.0000
  C   C2        1.0  0.10236213230664104  0.8258088009492578  0.8808404482496981  1.0000
  C   C3        1.0  0.3020262173483159  0.41901513773144905  0.1921480816112924  1.0000
  C   C4        1.0  0.19570848782028982  0.058873185871578984  0.19940327089875112  1.0000
  C   C5        1.0  0.21849549151171743  0.23236272192792595  0.7912228043983254  1.0000
  C   C6        1.0  0.8318629514686872  0.6567007654728723  0.7894117453987162  1.0000
  C   C7        1.0  0.3086671844463722  0.9874040315170407  0.5982356801757162  1.0000
  C   C8        1.0  0.02731627509438493  0.4770831136744349  0.3515635694121628  1.0000
  C   C9        1.0  0.9631854438724817  0.8284438473277219  0.5719462332120373  1.0000
  C   C10       1.0  0.48804081350836614  0.6900229516730774  0.3333175010343658  1.0000
  I   I1        1.0  0.708474586603996  0.04078141426851278  0.7819892742594703  1.0000
  I   I2        1.0  0.8331295562681473  0.09593943792453496  0.13926651020026914  1.0000
  O   O1        1.0  0.17149047463495104  0.6960156291481912  0.9307482418984392  1.0000
  O   O2        1.0  0.32996013133175817  0.9887144634318962  0.49232690424831477  1.0000
  O   O3        1.0  0.6348344500123636  0.8307878909562676  0.3686670230165056  1.0000
  O   O4        1.0  0.6896020350725023  0.5364324844854792  0.8313549936720018  1.0000
  O   O5        1.0  0.4853964420487559  0.4061906894995728  0.4952171881973402  1.0000
  O   O6        1.0  0.045847192448809006  0.6574087052352326  0.3639180282290376  1.0000
  O   O7        1.0  0.4537084369814259  0.47690268002587677  0.13869565478298965  1.0000
  O   O8        1.0  0.3271841896847385  0.37432325530098554  0.8458848325970864  1.0000
  O   O9        1.0  0.8606793209870662  0.6912422615582392  0.509051541716023  1.0000
  O   O10       1.0  0.23695676846470193  0.9327683529743934  0.12842980256863684  1.0000
data_image142
_chemical_formula_structural       Re2C10I2O10
_chemical_formula_sum              "Re2 C10 I2 O10"
_cell_length_a       6.7806348447214
_cell_length_b       6.7806348447214
_cell_length_c       10.993743
_cell_angle_alpha    90.0
_cell_angle_beta     90.0
_cell_angle_gamma    110.32517840843863

_space_group_name_H-M_alt    "P 1"
_space_group_IT_number       1

loop_
  _space_group_symop_operation_xyz
  'x, y, z'

loop_
  _atom_site_type_symbol
  _atom_site_label
  _atom_site_symmetry_multiplicity
  _atom_site_fract_x
  _atom_site_fract_y
  _atom_site_fract_z
  _atom_site_occupancy
  Re  Re1       1.0  0.07320341363890526  0.9605899954938839  0.7439698207915679  1.0000
  Re  Re2       1.0  0.12853626294660317  0.24682974114200532  0.27560345926845903  1.0000
  C   C1        1.0  0.31913184676567946  0.3599963552758214  0.40038280337763804  1.0000
  C   C2        1.0  0.12560154729908746  0.9038835370342895  0.918088072731499  1.0000
  C   C3        1.0  0.27481226431290706  0.40740236983470157  0.14177474357365888  1.0000
  C   C4        1.0  0.3019442942770547  0.09335271520586076  0.29611807460034234  1.0000
  C   C5        1.0  0.08080807058316841  0.2402040780034717  0.8260548052392895  1.0000
  C   C6        1.0  0.9507925842015273  0.6292652549880999  0.7010008548711139  1.0000
  C   C7        1.0  0.2881019683134083  0.9807322703999759  0.6421288289001265  1.0000
  C   C8        1.0  0.026960545805732126  0.4594976466445373  0.34756465146044424  1.0000
  C   C9        1.0  0.82396968687018  0.9195810971606811  0.5923308667751305  1.0000
  C   C10       1.0  0.6508774281691917  0.7393131248319031  0.2986098110205083  1.0000
  I   I1        1.0  0.6838323924737686  0.9876573620794025  0.8173151718447954  1.0000
  I   I2        1.0  0.8122708488577621  0.08103480111753725  0.08460052316603307  1.0000
  O   O1        1.0  0.14451678805615198  0.7868444083988247  0.9929240420110084  1.0000
  O   O2        1.0  0.3654729969608024  0.9981825059021076  0.5498481056735031  1.0000
  O   O3        1.0  0.7303658493622491  0.8947142103882766  0.3528858493745145  1.0000
  O   O4        1.0  0.8534523007250566  0.44993675876592654  0.7162657985665534  1.0000
  O   O5        1.0  0.4398292481294527  0.43412056231588214  0.4778215737727678  1.0000
  O   O6        1.0  0.03713863166780799  0.6213912060086988  0.3909877927310131  1.0000
  O   O7        1.0  0.4582548566039572  0.46382575675446136  0.0994703084265968  1.0000
  O   O8        1.0  0.06241814014504543  0.33345915458209174  0.9172763374284326  1.0000
  O   O9        1.0  0.6489931155544115  0.8228761464830887  0.5748937152288401  1.0000
  O   O10       1.0  0.361273631631979  0.9307474155737163  0.29282896250835416  1.0000
data_image143
_chemical_formula_structural       Re2C10I2O10
_chemical_formula_sum              "Re2 C10 I2 O10"
_cell_length_a       6.7806348447214
_cell_length_b       6.7806348447214
_cell_length_c       10.993743
_cell_angle_alpha    90.0
_cell_angle_beta     90.0
_cell_angle_gamma    110.32517840843863

_space_group_name_H-M_alt    "P 1"
_space_group_IT_number       1

loop_
  _space_group_symop_operation_xyz
  'x, y, z'

loop_
  _atom_site_type_symbol
  _atom_site_label
  _atom_site_symmetry_multiplicity
  _atom_site_fract_x
  _atom_site_fract_y
  _atom_site_fract_z
  _atom_site_occupancy
  Re  Re1       1.0  0.06587562260164681  0.9570499981077198  0.7689356532407119  1.0000
  Re  Re2       1.0  0.1619394742283011  0.24662682700248895  0.24185353705769258  1.0000
  C   C1        1.0  0.32335059729134374  0.37218680784744906  0.40073973148162995  1.0000
  C   C2        1.0  0.12908565433037444  0.8241431063023061  0.9109947338599859  1.0000
  C   C3        1.0  0.3651867434632127  0.40292143435591354  0.11960407499450368  1.0000
  C   C4        1.0  0.23294946739518785  0.9935656158881411  0.2817792568440463  1.0000
  C   C5        1.0  0.11723415942588611  0.24174462160579385  0.7943998524618728  1.0000
  C   C6        1.0  0.1095470608148498  0.7742630375110885  0.6264848794411727  1.0000
  C   C7        1.0  0.3577593962187948  0.04718367070585794  0.7037736436407865  1.0000
  C   C8        1.0  0.9456544695713822  0.38171931742945375  0.30736449184175896  1.0000
  C   C9        1.0  0.8311389473516109  0.8829669565207224  0.640763209482379  1.0000
  C   C10       1.0  0.6209392587017434  0.6735486565002717  0.3134346301606342  1.0000
  I   I1        1.0  0.6307674265982878  0.9789020518896117  0.8603896451889733  1.0000
  I   I2        1.0  0.7857078008308727  0.1038381496012144  0.08091678105677952  1.0000
  O   O1        1.0  0.17966778140537865  0.7718641664538027  0.011709757327974524  1.0000
  O   O2        1.0  0.49842384608016976  0.1497309855170219  0.6380914123547734  1.0000
  O   O3        1.0  0.7066571102823693  0.852355934686853  0.3260097402653009  1.0000
  O   O4        1.0  0.04248730882793037  0.5954230055179797  0.5934967073302733  1.0000
  O   O5        1.0  0.41219590693415237  0.4148797506373283  0.4877505723473265  1.0000
  O   O6        1.0  0.8535036390779392  0.4858982964375067  0.35811971562024913  1.0000
  O   O7        1.0  0.5045448511964792  0.4589265150075814  0.05420739357365591  1.0000
  O   O8        1.0  0.16611467136924274  0.41894085538876064  0.8046586799225341  1.0000
  O   O9        1.0  0.6672461519029012  0.7929632817028563  0.5910325111879567  1.0000
  O   O10       1.0  0.2554189599857274  0.8529233722343177  0.3432256081959443  1.0000
data_image144
_chemical_formula_structural       Re2C10I2O10
_chemical_formula_sum              "Re2 C10 I2 O10"
_cell_length_a       6.7806348447214
_cell_length_b       6.7806348447214
_cell_length_c       10.993743
_cell_angle_alpha    90.0
_cell_angle_beta     90.0
_cell_angle_gamma    110.32517840843863

_space_group_name_H-M_alt    "P 1"
_space_group_IT_number       1

loop_
  _space_group_symop_operation_xyz
  'x, y, z'

loop_
  _atom_site_type_symbol
  _atom_site_label
  _atom_site_symmetry_multiplicity
  _atom_site_fract_x
  _atom_site_fract_y
  _atom_site_fract_z
  _atom_site_occupancy
  Re  Re1       1.0  0.09808392585002657  0.958441971958092  0.7365900162595469  1.0000
  Re  Re2       1.0  0.14340863489499608  0.23969514722630256  0.24711613874075417  1.0000
  C   C1        1.0  0.26203471745584545  0.29730676289398494  0.3870951012264061  1.0000
  C   C2        1.0  0.030616434765566858  0.816830245392808  0.8940751869702895  1.0000
  C   C3        1.0  0.36708607722973413  0.3015894388651321  0.1253973238836167  1.0000
  C   C4        1.0  0.1520029702902489  0.9740146741234387  0.23815679898673384  1.0000
  C   C5        1.0  0.11141321637012513  0.25238451562418335  0.7901886012719556  1.0000
  C   C6        1.0  0.16510050616716282  0.8324126516355232  0.5683198924867795  1.0000
  C   C7        1.0  0.45965880820279237  0.1456776230684136  0.6378251636300599  1.0000
  C   C8        1.0  0.9834135738402447  0.4212214201289397  0.30217199447960513  1.0000
  C   C9        1.0  0.7922348956324173  0.7647685351561515  0.6974975029181544  1.0000
  C   C10       1.0  0.6977319009989547  0.8104101320537407  0.2950952540834887  1.0000
  I   I1        1.0  0.6590243382966448  0.005240810359415482  0.8987853792758034  1.0000
  I   I2        1.0  0.773980861691035  0.12716971135342847  0.11353241450932201  1.0000
  O   O1        1.0  0.028801117252851283  0.8045764267851925  0.013196637803774003  1.0000
  O   O2        1.0  0.6101151596097774  0.19606924428034178  0.5864463108847293  1.0000
  O   O3        1.0  0.6142807685154347  0.6900745440983924  0.3637931113046745  1.0000
  O   O4        1.0  0.10283931587985559  0.7205935164809266  0.48177778197908083  1.0000
  O   O5        1.0  0.36599131500286436  0.36443649607440176  0.47815037065879  1.0000
  O   O6        1.0  0.8444437321859217  0.48745626813479914  0.3262344960458063  1.0000
  O   O7        1.0  0.49161553785945544  0.3666807737811907  0.04065610132744882  1.0000
  O   O8        1.0  0.14299650052454638  0.4079295754077307  0.8301170302752922  1.0000
  O   O9        1.0  0.6429484335544958  0.6138147845512297  0.7287605498288796  1.0000
  O   O10       1.0  0.1638675400277173  0.8100139544759435  0.24138207333716052  1.0000
data_image145
_chemical_formula_structural       Re2C10I2O10
_chemical_formula_sum              "Re2 C10 I2 O10"
_cell_length_a       6.7806348447214
_cell_length_b       6.7806348447214
_cell_length_c       10.993743
_cell_angle_alpha    90.0
_cell_angle_beta     90.0
_cell_angle_gamma    110.32517840843863

_space_group_name_H-M_alt    "P 1"
_space_group_IT_number       1

loop_
  _space_group_symop_operation_xyz
  'x, y, z'

loop_
  _atom_site_type_symbol
  _atom_site_label
  _atom_site_symmetry_multiplicity
  _atom_site_fract_x
  _atom_site_fract_y
  _atom_site_fract_z
  _atom_site_occupancy
  Re  Re1       1.0  0.08493511658799258  0.9356812086039872  0.7172933710629534  1.0000
  Re  Re2       1.0  0.13503372160824492  0.22191122627195034  0.2699980845405912  1.0000
  C   C1        1.0  0.2881208252984535  0.336244240663258  0.4207127978080907  1.0000
  C   C2        1.0  0.12733586994007218  0.7946880122071892  0.875824164084861  1.0000
  C   C3        1.0  0.31275988785123054  0.4465035831658524  0.16347502893913896  1.0000
  C   C4        1.0  0.23882269245857402  0.9858826810929308  0.21458438761345075  1.0000
  C   C5        1.0  0.14857994620815607  0.23318151567241757  0.7408709636217163  1.0000
  C   C6        1.0  0.2328082556305155  0.9104265898374944  0.5575944491205613  1.0000
  C   C7        1.0  0.5420148909697491  0.098720598413639  0.6559091337401939  1.0000
  C   C8        1.0  0.9967985695559027  0.39152062436493273  0.33397236252505424  1.0000
  C   C9        1.0  0.81251691093426  0.72881320100096  0.7303946528842309  1.0000
  C   C10       1.0  0.7734352785678056  0.8358849356946292  0.34660731489600305  1.0000
  I   I1        1.0  0.5795712192632567  0.9578903697816612  0.8728837459606182  1.0000
  I   I2        1.0  0.7975740745428423  0.18173479496403566  0.11721358146593729  1.0000
  O   O1        1.0  0.13428651096056998  0.8005222450591714  0.9785883820533531  1.0000
  O   O2        1.0  0.6979469221493195  0.15757585628249826  0.6019546164317221  1.0000
  O   O3        1.0  0.6236087128566836  0.7420700021350168  0.3998868812378263  1.0000
  O   O4        1.0  0.20209760776517202  0.8466755003109274  0.45733882392436437  1.0000
  O   O5        1.0  0.3221424586451107  0.3745664016444137  0.5311460242558135  1.0000
  O   O6        1.0  0.8468359226801171  0.41562921287512933  0.381948294348475  1.0000
  O   O7        1.0  0.39142490821548026  0.6091593439190153  0.11695161575482874  1.0000
  O   O8        1.0  0.13492393038734285  0.3816420708013731  0.7903706329163936  1.0000
  O   O9        1.0  0.6901989760071024  0.5567083964708273  0.7246648241412036  1.0000
  O   O10       1.0  0.3181542329203414  0.8840665756854376  0.16239504754093997  1.0000
data_image146
_chemical_formula_structural       Re2C10I2O10
_chemical_formula_sum              "Re2 C10 I2 O10"
_cell_length_a       6.7806348447214
_cell_length_b       6.7806348447214
_cell_length_c       10.993743
_cell_angle_alpha    90.0
_cell_angle_beta     90.0
_cell_angle_gamma    110.32517840843863

_space_group_name_H-M_alt    "P 1"
_space_group_IT_number       1

loop_
  _space_group_symop_operation_xyz
  'x, y, z'

loop_
  _atom_site_type_symbol
  _atom_site_label
  _atom_site_symmetry_multiplicity
  _atom_site_fract_x
  _atom_site_fract_y
  _atom_site_fract_z
  _atom_site_occupancy
  Re  Re1       1.0  0.011859844432078104  0.9303485183332006  0.6987328877928937  1.0000
  Re  Re2       1.0  0.14113143669097108  0.20309806355598628  0.3096433960595985  1.0000
  C   C1        1.0  0.3383035668209562  0.4022642381669046  0.41454236108761233  1.0000
  C   C2        1.0  0.09769011355903134  0.7920519748550331  0.8130913650327025  1.0000
  C   C3        1.0  0.26640178001749165  0.34262002672758346  0.1505183742241393  1.0000
  C   C4        1.0  0.3302596500095747  0.028472876198550486  0.2895071460250084  1.0000
  C   C5        1.0  0.15933207836054653  0.23134528570012053  0.6886628807420849  1.0000
  C   C6        1.0  0.21215836687303236  0.8989058677853755  0.5813992126622056  1.0000
  C   C7        1.0  0.6800537343265538  0.23797230971254346  0.7129121302070137  1.0000
  C   C8        1.0  0.9985123949703145  0.3589271488419672  0.39994493463190056  1.0000
  C   C9        1.0  0.7286510303200591  0.6744287630211474  0.7489428027323528  1.0000
  C   C10       1.0  0.9519824878452366  0.9478212000718289  0.347928002168851  1.0000
  I   I1        1.0  0.5290957500282589  0.9663377356018858  0.8659455416021923  1.0000
  I   I2        1.0  0.8380789513088999  0.17726565443467635  0.07166232226512181  1.0000
  O   O1        1.0  0.12894565529279411  0.72173586430188  0.9186237132164069  1.0000
  O   O2        1.0  0.7089257235089184  0.18327430418346213  0.6212113612033164  1.0000
  O   O3        1.0  0.8481382819489806  0.8438424558635338  0.4265429766101192  1.0000
  O   O4        1.0  0.3345948636541094  0.9082858143716147  0.5056606543083372  1.0000
  O   O5        1.0  0.44287132115994  0.5531294583624979  0.46764244020532253  1.0000
  O   O6        1.0  0.9009802870181609  0.4624162727462624  0.4468042313089626  1.0000
  O   O7        1.0  0.37851634777391985  0.36360633949496174  0.07004001946825306  1.0000
  O   O8        1.0  0.2187360665758713  0.3957818084265888  0.7234652660125654  1.0000
  O   O9        1.0  0.6174920168634478  0.5342257740692805  0.8148508265275229  1.0000
  O   O10       1.0  0.4148445541718633  0.9222692346061032  0.2403726658113994  1.0000
data_image147
_chemical_formula_structural       Re2C10I2O10
_chemical_formula_sum              "Re2 C10 I2 O10"
_cell_length_a       6.7806348447214
_cell_length_b       6.7806348447214
_cell_length_c       10.993743
_cell_angle_alpha    90.0
_cell_angle_beta     90.0
_cell_angle_gamma    110.32517840843863

_space_group_name_H-M_alt    "P 1"
_space_group_IT_number       1

loop_
  _space_group_symop_operation_xyz
  'x, y, z'

loop_
  _atom_site_type_symbol
  _atom_site_label
  _atom_site_symmetry_multiplicity
  _atom_site_fract_x
  _atom_site_fract_y
  _atom_site_fract_z
  _atom_site_occupancy
  Re  Re1       1.0  0.9264303813857672  0.9250810828701539  0.698245107808579  1.0000
  Re  Re2       1.0  0.18485950047986882  0.21592202281814826  0.30579134257057855  1.0000
  C   C1        1.0  0.38446620757040895  0.40632376882069887  0.4222310734220414  1.0000
  C   C2        1.0  0.025982989951774504  0.7665140833734035  0.8347989025401431  1.0000
  C   C3        1.0  0.17224966995064284  0.12061797341848209  0.11561858130990409  1.0000
  C   C4        1.0  0.3589761778515449  0.05460715248368598  0.3284043981720106  1.0000
  C   C5        1.0  0.09050448708036551  0.18389597393644178  0.8055017912203412  1.0000
  C   C6        1.0  0.10313261338637182  0.8276905818955436  0.6072753132472056  1.0000
  C   C7        1.0  0.7465151745086538  0.04418897331725957  0.5533317375364806  1.0000
  C   C8        1.0  0.13530589299632123  0.48017618831316167  0.34850458912033666  1.0000
  C   C9        1.0  0.7114648734777357  0.7139651023559063  0.8079143777579323  1.0000
  C   C10       1.0  0.9391615151980403  0.9273354088264685  0.3493886068620193  1.0000
  I   I1        1.0  0.5696827963751828  0.027797244565201717  0.8672521315804606  1.0000
  I   I2        1.0  0.8810857467865602  0.188586766678013  0.06500612815008608  1.0000
  O   O1        1.0  0.0949160872963779  0.7089939707899919  0.9147625976178628  1.0000
  O   O2        1.0  0.6506921891221564  0.14867408335654186  0.5271836027525426  1.0000
  O   O3        1.0  0.7861952681536502  0.7854014281752362  0.34591698592557585  1.0000
  O   O4        1.0  0.24870906483621918  0.7837551338798459  0.5751672014239473  1.0000
  O   O5        1.0  0.4915695920774564  0.533784031806465  0.4870693199154857  1.0000
  O   O6        1.0  0.07360798042455022  0.6170167733180145  0.36399159189617475  1.0000
  O   O7        1.0  0.28209727386277283  0.08911059486414336  0.04612390953681892  1.0000
  O   O8        1.0  0.20218180782608908  0.3441816553132924  0.8553789805406209  1.0000
  O   O9        1.0  0.6238090270159831  0.5664145667225075  0.8759693086713062  1.0000
  O   O10       1.0  0.4310553269271482  0.9275833136268832  0.33529861893501206  1.0000
data_image148
_chemical_formula_structural       Re2C10I2O10
_chemical_formula_sum              "Re2 C10 I2 O10"
_cell_length_a       6.7806348447214
_cell_length_b       6.7806348447214
_cell_length_c       10.993743
_cell_angle_alpha    90.0
_cell_angle_beta     90.0
_cell_angle_gamma    110.32517840843863

_space_group_name_H-M_alt    "P 1"
_space_group_IT_number       1

loop_
  _space_group_symop_operation_xyz
  'x, y, z'

loop_
  _atom_site_type_symbol
  _atom_site_label
  _atom_site_symmetry_multiplicity
  _atom_site_fract_x
  _atom_site_fract_y
  _atom_site_fract_z
  _atom_site_occupancy
  Re  Re1       1.0  0.9212572295388347  0.9048954286843401  0.717335310064315  1.0000
  Re  Re2       1.0  0.17894584214174833  0.275074501451545  0.3110149737124221  1.0000
  C   C1        1.0  0.21780261156718567  0.2816466187365685  0.48266679191396883  1.0000
  C   C2        1.0  0.20603015964145666  0.7649038018537424  0.835793747806049  1.0000
  C   C3        1.0  0.15171017547079688  0.043180728432515164  0.10408753402150574  1.0000
  C   C4        1.0  0.4486867403086773  0.19983034840547786  0.2680730081910307  1.0000
  C   C5        1.0  0.1142127940380333  0.14532596652813837  0.8069786355749587  1.0000
  C   C6        1.0  0.11552509680658639  0.8398961622840084  0.613424299885639  1.0000
  C   C7        1.0  0.8190939908694346  0.058303538355521045  0.5754602602959505  1.0000
  C   C8        1.0  0.1348235696146513  0.5426666538551463  0.2431885957612141  1.0000
  C   C9        1.0  0.7377212261618767  0.6265596248986713  0.8068616469231761  1.0000
  C   C10       1.0  0.9538620359293237  0.016183947825798572  0.33575891443946054  1.0000
  I   I1        1.0  0.5660252423866224  0.023241846109679054  0.8573818074880515  1.0000
  I   I2        1.0  0.8778163449553488  0.16912411610549727  0.07339661484189974  1.0000
  O   O1        1.0  0.2303626993819763  0.6458513871945594  0.9160907508345573  1.0000
  O   O2        1.0  0.7701876460592101  0.1928851777639211  0.5441008492570122  1.0000
  O   O3        1.0  0.7903937296861563  0.871483910434125  0.3123942670674482  1.0000
  O   O4        1.0  0.25797820100024715  0.8483868596845845  0.5458310154473428  1.0000
  O   O5        1.0  0.17245059625436246  0.2130892250044134  0.5791206566537401  1.0000
  O   O6        1.0  0.05458843487518735  0.654104123410195  0.206943720262967  1.0000
  O   O7        1.0  0.225097195257561  0.9157097346668098  0.10014957488696687  1.0000
  O   O8        1.0  0.21023859759291064  0.2875765792755142  0.8708928084389459  1.0000
  O   O9        1.0  0.5857582679213376  0.4782932273451163  0.7798306895364279  1.0000
  O   O10       1.0  0.5913989502706072  0.13439307237687326  0.2649269667527291  1.0000
data_image149
_chemical_formula_structural       Re2C10I2O10
_chemical_formula_sum              "Re2 C10 I2 O10"
_cell_length_a       6.7806348447214
_cell_length_b       6.7806348447214
_cell_length_c       10.993743
_cell_angle_alpha    90.0
_cell_angle_beta     90.0
_cell_angle_gamma    110.32517840843863

_space_group_name_H-M_alt    "P 1"
_space_group_IT_number       1

loop_
  _space_group_symop_operation_xyz
  'x, y, z'

loop_
  _atom_site_type_symbol
  _atom_site_label
  _atom_site_symmetry_multiplicity
  _atom_site_fract_x
  _atom_site_fract_y
  _atom_site_fract_z
  _atom_site_occupancy
  Re  Re1       1.0  0.8989598045376622  0.8277169961739864  0.7450220243498838  1.0000
  Re  Re2       1.0  0.1637849898511848  0.32259936977721704  0.2738711131435283  1.0000
  C   C1        1.0  0.3081042022344874  0.42850833828523793  0.42631021379237694  1.0000
  C   C2        1.0  0.08867570643876665  0.6363583538315707  0.8557602970065843  1.0000
  C   C3        1.0  0.3232032009060134  0.1876352323722984  0.1457511662039259  1.0000
  C   C4        1.0  0.4661502684171329  0.40878846677419506  0.30047971439133964  1.0000
  C   C5        1.0  0.1595700075999602  0.1002866260731475  0.8464248824807001  1.0000
  C   C6        1.0  0.11317405678132879  0.832744633325802  0.6264392872199303  1.0000
  C   C7        1.0  0.861007465448171  0.09547884037588372  0.6874358137731683  1.0000
  C   C8        1.0  0.10284535630917617  0.5531758398331947  0.2047190881695833  1.0000
  C   C9        1.0  0.6624321538036683  0.535534865097227  0.7401171971022757  1.0000
  C   C10       1.0  0.020610332757811378  0.10617989546076378  0.4000030521193799  1.0000
  I   I1        1.0  0.5739777889302211  0.9927374264618039  0.8531863374862648  1.0000
  I   I2        1.0  0.8803045080853303  0.0949111526929437  0.05381895077035188  1.0000
  O   O1        1.0  0.051717897907327615  0.6082658773589038  0.9691379797529167  1.0000
  O   O2        1.0  0.852872183244104  0.254239283139992  0.6568902856203107  1.0000
  O   O3        1.0  0.8661125615383211  0.05394414001662806  0.45558618446984656  1.0000
  O   O4        1.0  0.22017932939226276  0.8318616572743188  0.5418679484456813  1.0000
  O   O5        1.0  0.33460247346302063  0.4621449366996837  0.5379324930293734  1.0000
  O   O6        1.0  0.9610259445883895  0.6054460660841405  0.17028831408700706  1.0000
  O   O7        1.0  0.4241528609983189  0.1369510877979605  0.08450949895854337  1.0000
  O   O8        1.0  0.2521212241204678  0.2720081183221157  0.8629662653963925  1.0000
  O   O9        1.0  0.5079073368451595  0.42599760781419327  0.6885742709887831  1.0000
  O   O10       1.0  0.6309885290192894  0.48384903242050065  0.3284031312220486  1.0000
data_image150
_chemical_formula_structural       Re2C10I2O10
_chemical_formula_sum              "Re2 C10 I2 O10"
_cell_length_a       6.7806348447214
_cell_length_b       6.7806348447214
_cell_length_c       10.993743
_cell_angle_alpha    90.0
_cell_angle_beta     90.0
_cell_angle_gamma    110.32517840843863

_space_group_name_H-M_alt    "P 1"
_space_group_IT_number       1

loop_
  _space_group_symop_operation_xyz
  'x, y, z'

loop_
  _atom_site_type_symbol
  _atom_site_label
  _atom_site_symmetry_multiplicity
  _atom_site_fract_x
  _atom_site_fract_y
  _atom_site_fract_z
  _atom_site_occupancy
  Re  Re1       1.0  0.8677361000982738  0.8242750064760425  0.7565972161613754  1.0000
  Re  Re2       1.0  0.20128379126464796  0.34769050635835186  0.24861338931199067  1.0000
  C   C1        1.0  0.35294160490879256  0.5803027879765796  0.38086696220724  1.0000
  C   C2        1.0  0.06791606794760119  0.6969726186806009  0.8266566769999041  1.0000
  C   C3        1.0  0.40007933607029483  0.33718683097082225  0.10780848587775999  1.0000
  C   C4        1.0  0.46529065564120586  0.4112548520997392  0.3533670265947988  1.0000
  C   C5        1.0  0.12531493735181343  0.06637221668139869  0.8819680573752984  1.0000
  C   C6        1.0  0.13038598090442477  0.926422575159746  0.6511931456246814  1.0000
  C   C7        1.0  0.896277657787266  0.12431015302651693  0.6826148087189218  1.0000
  C   C8        1.0  0.055132748015267255  0.5636477441133114  0.24696804976467981  1.0000
  C   C9        1.0  0.6528093866634154  0.5523407893811179  0.7453290926659791  1.0000
  C   C10       1.0  0.9633750240941537  0.16355850437716946  0.3810454027950133  1.0000
  I   I1        1.0  0.5550865946367753  0.8952556438624097  0.8439549584104814  1.0000
  I   I2        1.0  0.8638705027292687  0.06231360235327077  0.07893446191343288  1.0000
  O   O1        1.0  0.14977084023031106  0.5992852082980422  0.8755740445348794  1.0000
  O   O2        1.0  0.878520974412341  0.2844284168670346  0.660944925729259  1.0000
  O   O3        1.0  0.8107888110778148  0.07137321329457791  0.4333011381640735  1.0000
  O   O4        1.0  0.2554705074168871  0.9252908549367624  0.580755052084919  1.0000
  O   O5        1.0  0.3918451141963374  0.7649359116087311  0.413931557359108  1.0000
  O   O6        1.0  0.8950227613611994  0.6139072455071308  0.2461515354196267  1.0000
  O   O7        1.0  0.5110573391101093  0.2604712223376288  0.07821067185221968  1.0000
  O   O8        1.0  0.27376674317745087  0.20059665714667022  0.9016210138529943  1.0000
  O   O9        1.0  0.5149476974333197  0.41366877982139133  0.7073105300003305  1.0000
  O   O10       1.0  0.6206725095298551  0.3878629217027792  0.4066210931757303  1.0000
data_image151
_chemical_formula_structural       Re2C10I2O10
_chemical_formula_sum              "Re2 C10 I2 O10"
_cell_length_a       6.7806348447214
_cell_length_b       6.7806348447214
_cell_length_c       10.993743
_cell_angle_alpha    90.0
_cell_angle_beta     90.0
_cell_angle_gamma    110.32517840843863

_space_group_name_H-M_alt    "P 1"
_space_group_IT_number       1

loop_
  _space_group_symop_operation_xyz
  'x, y, z'

loop_
  _atom_site_type_symbol
  _atom_site_label
  _atom_site_symmetry_multiplicity
  _atom_site_fract_x
  _atom_site_fract_y
  _atom_site_fract_z
  _atom_site_occupancy
  Re  Re1       1.0  0.9035442599628108  0.8570489892127418  0.7407963465259878  1.0000
  Re  Re2       1.0  0.23727120342819916  0.38663215810280627  0.23353773758187363  1.0000
  C   C1        1.0  0.3562108395986875  0.5934141945652309  0.33609841946766433  1.0000
  C   C2        1.0  0.9334642039240447  0.6638104479001024  0.858605244807117  1.0000
  C   C3        1.0  0.44110515616806223  0.49806221615059365  0.1018184025237773  1.0000
  C   C4        1.0  0.3805241732842064  0.274064285254772  0.3524460478577275  1.0000
  C   C5        1.0  0.14082036271189358  0.12109097450755207  0.8463397528799542  1.0000
  C   C6        1.0  0.17652241042004627  0.9139158753367425  0.66556804686532  1.0000
  C   C7        1.0  0.8127064862507458  0.06242125823308786  0.6426454239238878  1.0000
  C   C8        1.0  0.027245778882506514  0.6072261230348699  0.2634302723626708  1.0000
  C   C9        1.0  0.6551025021882924  0.5765414103588451  0.6974383607044874  1.0000
  C   C10       1.0  0.003437801848450393  0.24384568155436925  0.35839778265406186  1.0000
  I   I1        1.0  0.4644033475469568  0.7543134012898729  0.8654159719564056  1.0000
  I   I2        1.0  0.906438441723151  0.10379435181199648  0.12060839771585982  1.0000
  O   O1        1.0  0.9270121290373272  0.5074085127250699  0.9008535400572573  1.0000
  O   O2        1.0  0.7064573201928743  0.15109083134605195  0.619928627268186  1.0000
  O   O3        1.0  0.9488563685270558  0.09592044863945315  0.4149156819550813  1.0000
  O   O4        1.0  0.26116642183010425  0.9055176603348577  0.5850444321203485  1.0000
  O   O5        1.0  0.4573870139374638  0.7466596520326392  0.39687935377136396  1.0000
  O   O6        1.0  0.8987189493087858  0.6765355642983297  0.26328598029562683  1.0000
  O   O7        1.0  0.5803128095731893  0.5198880222864702  0.04815804227325111  1.0000
  O   O8        1.0  0.2263403180149557  0.21401063501543824  0.9238397096016663  1.0000
  O   O9        1.0  0.5566361349354277  0.39954398469264985  0.6848771924984993  1.0000
  O   O10       1.0  0.4076640618654994  0.1616505284840109  0.4271748781911486  1.0000
data_image152
_chemical_formula_structural       Re2C10I2O10
_chemical_formula_sum              "Re2 C10 I2 O10"
_cell_length_a       6.7806348447214
_cell_length_b       6.7806348447214
_cell_length_c       10.993743
_cell_angle_alpha    90.0
_cell_angle_beta     90.0
_cell_angle_gamma    110.32517840843863

_space_group_name_H-M_alt    "P 1"
_space_group_IT_number       1

loop_
  _space_group_symop_operation_xyz
  'x, y, z'

loop_
  _atom_site_type_symbol
  _atom_site_label
  _atom_site_symmetry_multiplicity
  _atom_site_fract_x
  _atom_site_fract_y
  _atom_site_fract_z
  _atom_site_occupancy
  Re  Re1       1.0  0.9039038849936333  0.819303408380641  0.7290767518686171  1.0000
  Re  Re2       1.0  0.24864565864427302  0.44141810591544006  0.23900233241681654  1.0000
  C   C1        1.0  0.47986121032638873  0.6492319122643835  0.36579066249839426  1.0000
  C   C2        1.0  0.8175754404310903  0.5871295965618124  0.8686119761344004  1.0000
  C   C3        1.0  0.5127277203758652  0.639199251123165  0.17725329820355173  1.0000
  C   C4        1.0  0.4483584274078831  0.25478502865198444  0.26416573732145987  1.0000
  C   C5        1.0  0.14799366665549618  0.07403655442456869  0.7806914280118628  1.0000
  C   C6        1.0  0.1077061296328634  0.7417018255985761  0.6244538174700804  1.0000
  C   C7        1.0  0.8065813386688996  0.02742203469264659  0.6698133976289931  1.0000
  C   C8        1.0  0.016784620281247033  0.571686701735387  0.3252105160643532  1.0000
  C   C9        1.0  0.591101882552124  0.6304955589398954  0.6423629882301202  1.0000
  C   C10       1.0  0.1400113913923382  0.3052447160532874  0.39209904611192364  1.0000
  I   I1        1.0  0.3885577987136396  0.7287795820240168  0.8535426813392006  1.0000
  I   I2        1.0  0.9289513676275412  0.12095937932054524  0.14114224016740337  1.0000
  O   O1        1.0  0.7777976155150672  0.41730850093040306  0.91761882072635  1.0000
  O   O2        1.0  0.6727902880394154  0.10241445536504012  0.6847415656736945  1.0000
  O   O3        1.0  0.06696338305621234  0.1676382042424054  0.45556087158491076  1.0000
  O   O4        1.0  0.2199487441814202  0.7195517121302827  0.5494721090732161  1.0000
  O   O5        1.0  0.5844902388734864  0.7611668083030516  0.4329817877085536  1.0000
  O   O6        1.0  0.8648719709031603  0.5928495236740481  0.36328099872762715  1.0000
  O   O7        1.0  0.695906456122583  0.6934424084267642  0.16440873557913888  1.0000
  O   O8        1.0  0.23201842522170946  0.19920950661147824  0.8574218730058591  1.0000
  O   O9        1.0  0.48999980171011015  0.4980709822011774  0.5812379063257012  1.0000
  O   O10       1.0  0.5471144267599533  0.14915228027183544  0.26479909458145046  1.0000
data_image153
_chemical_formula_structural       Re2C10I2O10
_chemical_formula_sum              "Re2 C10 I2 O10"
_cell_length_a       6.7806348447214
_cell_length_b       6.7806348447214
_cell_length_c       10.993743
_cell_angle_alpha    90.0
_cell_angle_beta     90.0
_cell_angle_gamma    110.32517840843863

_space_group_name_H-M_alt    "P 1"
_space_group_IT_number       1

loop_
  _space_group_symop_operation_xyz
  'x, y, z'

loop_
  _atom_site_type_symbol
  _atom_site_label
  _atom_site_symmetry_multiplicity
  _atom_site_fract_x
  _atom_site_fract_y
  _atom_site_fract_z
  _atom_site_occupancy
  Re  Re1       1.0  0.8281491136658997  0.7603557367850596  0.753673450161375  1.0000
  Re  Re2       1.0  0.28941092992705686  0.4626824591242126  0.25192130440664984  1.0000
  C   C1        1.0  0.42874635562632946  0.6616349811807927  0.3866785126185026  1.0000
  C   C2        1.0  0.7634621132544761  0.5689448135620869  0.8945396745366501  1.0000
  C   C3        1.0  0.5078400014968029  0.6688827209037443  0.13838187784461287  1.0000
  C   C4        1.0  0.49541489952305806  0.2611407546024884  0.1561676404411181  1.0000
  C   C5        1.0  0.07417730004498013  0.004389773856267009  0.7548235363469847  1.0000
  C   C6        1.0  0.919674357797488  0.6797375542263524  0.6156009586016951  1.0000
  C   C7        1.0  0.7187164958545753  0.9726672787508563  0.7315306462602352  1.0000
  C   C8        1.0  0.12083907374794295  0.6260197528522558  0.2341940930330514  1.0000
  C   C9        1.0  0.5497430907170842  0.580746578549308  0.6643174350318264  1.0000
  C   C10       1.0  0.2173272902309122  0.28638139295265885  0.38143820749943264  1.0000
  I   I1        1.0  0.3674747118658499  0.7047074391576655  0.8699467076144585  1.0000
  I   I2        1.0  0.055619882196258574  0.19599850276871045  0.12564302631509056  1.0000
  O   O1        1.0  0.8191449195609288  0.4367539729685941  0.959670411452082  1.0000
  O   O2        1.0  0.6344178950639461  0.10307307808807908  0.7188743606769187  1.0000
  O   O3        1.0  0.2089814385719402  0.21191764909925315  0.47445770069235105  1.0000
  O   O4        1.0  0.0032083294463023733  0.6418181532401132  0.5270687948260698  1.0000
  O   O5        1.0  0.505231704898306  0.7994028159287192  0.447092513406043  1.0000
  O   O6        1.0  0.9781832445359999  0.6861867021393566  0.23098957679974916  1.0000
  O   O7        1.0  0.6537663827979231  0.8121000686201277  0.09490004287700407  1.0000
  O   O8        1.0  0.2042374763225343  0.15403183663112313  0.7899023935412663  1.0000
  O   O9        1.0  0.4039593161665119  0.4722291058883668  0.6156372437115346  1.0000
  O   O10       1.0  0.5307641826103018  0.1546626146991636  0.08206882556822072  1.0000
data_image154
_chemical_formula_structural       Re2C10I2O10
_chemical_formula_sum              "Re2 C10 I2 O10"
_cell_length_a       6.7806348447214
_cell_length_b       6.7806348447214
_cell_length_c       10.993743
_cell_angle_alpha    90.0
_cell_angle_beta     90.0
_cell_angle_gamma    110.32517840843863

_space_group_name_H-M_alt    "P 1"
_space_group_IT_number       1

loop_
  _space_group_symop_operation_xyz
  'x, y, z'

loop_
  _atom_site_type_symbol
  _atom_site_label
  _atom_site_symmetry_multiplicity
  _atom_site_fract_x
  _atom_site_fract_y
  _atom_site_fract_z
  _atom_site_occupancy
  Re  Re1       1.0  0.8063611314134355  0.7709251256815025  0.7702649995504212  1.0000
  Re  Re2       1.0  0.35926925592378745  0.49347037106333835  0.2573559779859408  1.0000
  C   C1        1.0  0.4672188890972244  0.6661076269057271  0.39775065908918883  1.0000
  C   C2        1.0  0.8679231320409397  0.6757955041641275  0.9285541728910294  1.0000
  C   C3        1.0  0.5643342615626759  0.738648033155829  0.17764062214854875  1.0000
  C   C4        1.0  0.5032813113009394  0.24957228462272693  0.19497147736714826  1.0000
  C   C5        1.0  0.06138361208313681  0.972096353336237  0.7147829100623522  1.0000
  C   C6        1.0  0.8797210581303218  0.6009826783377721  0.6401793015198659  1.0000
  C   C7        1.0  0.6845951499985174  0.9785447636323268  0.7625704855624795  1.0000
  C   C8        1.0  0.12422380185870835  0.5975264605097328  0.22219918025050311  1.0000
  C   C9        1.0  0.53887477874515  0.5766345927610864  0.6661616228313886  1.0000
  C   C10       1.0  0.26865084969072583  0.20492418478178687  0.3304159931248872  1.0000
  I   I1        1.0  0.2533960315041719  0.7018054190865862  0.867024099108477  1.0000
  I   I2        1.0  0.0569887328287666  0.17286749393368472  0.08517063432695125  1.0000
  O   O1        1.0  0.8611017458500877  0.5371243546538841  0.0027326090414576676  1.0000
  O   O2        1.0  0.6623322508519918  0.150060072653309  0.7755825006126846  1.0000
  O   O3        1.0  0.23475669392514903  0.06013384148328482  0.3883195627327229  1.0000
  O   O4        1.0  0.9279483456911646  0.5436214908445497  0.5482738351009125  1.0000
  O   O5        1.0  0.5358867264777114  0.7997919175282977  0.46926127268049095  1.0000
  O   O6        1.0  0.9900957261026114  0.6584422131528926  0.20409373909569814  1.0000
  O   O7        1.0  0.7203055435876767  0.8541211957043424  0.11303935397224874  1.0000
  O   O8        1.0  0.23586911256528253  0.0681770307565808  0.6818075408891799  1.0000
  O   O9        1.0  0.4736987534098441  0.4622243422522071  0.5951194590799328  1.0000
  O   O10       1.0  0.5044190599489098  0.08403602777723991  0.19228091816247808  1.0000
data_image155
_chemical_formula_structural       Re2C10I2O10
_chemical_formula_sum              "Re2 C10 I2 O10"
_cell_length_a       6.7806348447214
_cell_length_b       6.7806348447214
_cell_length_c       10.993743
_cell_angle_alpha    90.0
_cell_angle_beta     90.0
_cell_angle_gamma    110.32517840843863

_space_group_name_H-M_alt    "P 1"
_space_group_IT_number       1

loop_
  _space_group_symop_operation_xyz
  'x, y, z'

loop_
  _atom_site_type_symbol
  _atom_site_label
  _atom_site_symmetry_multiplicity
  _atom_site_fract_x
  _atom_site_fract_y
  _atom_site_fract_z
  _atom_site_occupancy
  Re  Re1       1.0  0.7749242190485318  0.7650300331483855  0.7582484930443574  1.0000
  Re  Re2       1.0  0.35689984770578254  0.465272712818584  0.258724663054371  1.0000
  C   C1        1.0  0.5387881519963275  0.7216154108604436  0.37120094615535876  1.0000
  C   C2        1.0  0.7459597618222067  0.5400547207404781  0.9222473799142955  1.0000
  C   C3        1.0  0.6110093687541195  0.7087214055400767  0.20253706672165553  1.0000
  C   C4        1.0  0.5875874186751122  0.3323096333556642  0.22312194118972523  1.0000
  C   C5        1.0  0.03718285606660299  0.9245199336328865  0.6585784851494435  1.0000
  C   C6        1.0  0.8773361885141191  0.579659703292211  0.6659505584185761  1.0000
  C   C7        1.0  0.7340391068444143  0.04057917733691663  0.7979136231591378  1.0000
  C   C8        1.0  0.1549065654127818  0.5780014491116727  0.3311000424887017  1.0000
  C   C9        1.0  0.5201006319093145  0.5874053848807419  0.6951828922185653  1.0000
  C   C10       1.0  0.2265571092744117  0.2244040298874026  0.35041644781291037  1.0000
  I   I1        1.0  0.18205634954665106  0.6968071094899526  0.8600999156516992  1.0000
  I   I2        1.0  0.15165424848954423  0.22401634481416333  0.059574809760158894  1.0000
  O   O1        1.0  0.6015189418882887  0.3948142837584957  0.9476218551996013  1.0000
  O   O2        1.0  0.71830762568672  0.2029890838233619  0.7978544669218214  1.0000
  O   O3        1.0  0.1299249280115139  0.13818973423504355  0.4338569081686031  1.0000
  O   O4        1.0  0.9758122860049645  0.48444876656044816  0.6197119595394341  1.0000
  O   O5        1.0  0.6746844969105383  0.816664143283472  0.43551550882420365  1.0000
  O   O6        1.0  0.05853902085626562  0.6826575140043025  0.35980898452716237  1.0000
  O   O7        1.0  0.8093749394929938  0.815128979360506  0.1699389253709047  1.0000
  O   O8        1.0  0.19899545235396543  0.02544173678848159  0.6193271065287916  1.0000
  O   O9        1.0  0.43267625668997917  0.43980847354358055  0.6467621590532847  1.0000
  O   O10       1.0  0.6938521880857631  0.249499460871677  0.1860650438006957  1.0000
data_image156
_chemical_formula_structural       Re2C10I2O10
_chemical_formula_sum              "Re2 C10 I2 O10"
_cell_length_a       6.7806348447214
_cell_length_b       6.7806348447214
_cell_length_c       10.993743
_cell_angle_alpha    90.0
_cell_angle_beta     90.0
_cell_angle_gamma    110.32517840843863

_space_group_name_H-M_alt    "P 1"
_space_group_IT_number       1

loop_
  _space_group_symop_operation_xyz
  'x, y, z'

loop_
  _atom_site_type_symbol
  _atom_site_label
  _atom_site_symmetry_multiplicity
  _atom_site_fract_x
  _atom_site_fract_y
  _atom_site_fract_z
  _atom_site_occupancy
  Re  Re1       1.0  0.7572015857495447  0.7367137705880887  0.757763462695635  1.0000
  Re  Re2       1.0  0.3881246435543253  0.4734245263937906  0.2388522169647869  1.0000
  C   C1        1.0  0.536077430362794  0.6671798472115267  0.37168861488120475  1.0000
  C   C2        1.0  0.8411619508051837  0.5977457016045585  0.9336015981048618  1.0000
  C   C3        1.0  0.5394576984270334  0.7023091838350802  0.12034426338005903  1.0000
  C   C4        1.0  0.5345427280793498  0.28375953640970397  0.2873429761168774  1.0000
  C   C5        1.0  0.030964269935149336  0.9016828366252502  0.6757217606803829  1.0000
  C   C6        1.0  0.8341106580146316  0.5010393236071415  0.6689218089821671  1.0000
  C   C7        1.0  0.6355167286016141  0.9497930160293426  0.8518375450837588  1.0000
  C   C8        1.0  0.22346630579640125  0.6103305975037798  0.33438697610432794  1.0000
  C   C9        1.0  0.48823124939634405  0.6091128962379228  0.6822359999059865  1.0000
  C   C10       1.0  0.18088256170575498  0.2952636026604041  0.3351274104237062  1.0000
  I   I1        1.0  0.1757786699284538  0.6809638650917543  0.8811068441740193  1.0000
  I   I2        1.0  0.196488186789612  0.288790275336846  0.04447588072354169  1.0000
  O   O1        1.0  0.8057774880656681  0.4838329219002936  0.021445858858743838  1.0000
  O   O2        1.0  0.6043431117123914  0.10356612117241681  0.8298024925889415  1.0000
  O   O3        1.0  0.035040328773434104  0.16511881523713523  0.3771849171555635  1.0000
  O   O4        1.0  0.8997751640051809  0.40607660662220596  0.5979450902256512  1.0000
  O   O5        1.0  0.6309799039960212  0.7568820260201417  0.45407193235221743  1.0000
  O   O6        1.0  0.19511268055105072  0.7343339047245132  0.3966779313709334  1.0000
  O   O7        1.0  0.6652964929510101  0.8682930659265462  0.09149610095098441  1.0000
  O   O8        1.0  0.20478972532772755  0.016936036110788547  0.6451235739003938  1.0000
  O   O9        1.0  0.31572475686529616  0.49758363137178085  0.6617532781851018  1.0000
  O   O10       1.0  0.6191218850747183  0.15058464308351305  0.30973699911445884  1.0000
data_image157
_chemical_formula_structural       Re2C10I2O10
_chemical_formula_sum              "Re2 C10 I2 O10"
_cell_length_a       6.7806348447214
_cell_length_b       6.7806348447214
_cell_length_c       10.993743
_cell_angle_alpha    90.0
_cell_angle_beta     90.0
_cell_angle_gamma    110.32517840843863

_space_group_name_H-M_alt    "P 1"
_space_group_IT_number       1

loop_
  _space_group_symop_operation_xyz
  'x, y, z'

loop_
  _atom_site_type_symbol
  _atom_site_label
  _atom_site_symmetry_multiplicity
  _atom_site_fract_x
  _atom_site_fract_y
  _atom_site_fract_z
  _atom_site_occupancy
  Re  Re1       1.0  0.7494881968004776  0.7360254508834502  0.7462568182768624  1.0000
  Re  Re2       1.0  0.3927723829279711  0.5064114802784502  0.2554240894331728  1.0000
  C   C1        1.0  0.6042820581507998  0.6907204183396252  0.3626923564758044  1.0000
  C   C2        1.0  0.8088531567613444  0.5756385514594038  0.011517313795355255  1.0000
  C   C3        1.0  0.48408291390247804  0.6665557772151868  0.08638191687024593  1.0000
  C   C4        1.0  0.4807483087033211  0.31415899906966166  0.3351850687058695  1.0000
  C   C5        1.0  0.018061101380348443  0.9650067756192899  0.7327871025374926  1.0000
  C   C6        1.0  0.7733228979554535  0.48777087539765734  0.6305309745231926  1.0000
  C   C7        1.0  0.7010910434808553  0.9919754186242428  0.8305319960982123  1.0000
  C   C8        1.0  0.3285057371489658  0.7231823716925798  0.3574286939892225  1.0000
  C   C9        1.0  0.5402762708718093  0.5621157225280682  0.6262010133839603  1.0000
  C   C10       1.0  0.13671810516134036  0.23106239856683697  0.29777690101835175  1.0000
  I   I1        1.0  0.23243954815676682  0.6530917054070087  0.8795399669422608  1.0000
  I   I2        1.0  0.14719854704710222  0.23254627765905467  0.04653421785710478  1.0000
  O   O1        1.0  0.8685237220708865  0.568417357834645  0.10685553201074116  1.0000
  O   O2        1.0  0.6421912685628199  0.13505927503171034  0.8596374432894177  1.0000
  O   O3        1.0  0.9755044636331089  0.1701206118909182  0.3441577767808783  1.0000
  O   O4        1.0  0.7541450554634774  0.3362229793251839  0.5718515857810179  1.0000
  O   O5        1.0  0.7729790903266165  0.7519781181935075  0.40694478889825586  1.0000
  O   O6        1.0  0.2032589606649344  0.8159915849190371  0.37863722663963606  1.0000
  O   O7        1.0  0.5915718897368123  0.8016193318383464  0.028594368435551496  1.0000
  O   O8        1.0  0.1752131370462644  0.11275107359122286  0.7332894390804615  1.0000
  O   O9        1.0  0.3779335372591092  0.5194613836574273  0.5588087222558411  1.0000
  O   O10       1.0  0.5781938980841821  0.1879926762554848  0.3371879525038503  1.0000
data_image158
_chemical_formula_structural       Re2C10I2O10
_chemical_formula_sum              "Re2 C10 I2 O10"
_cell_length_a       6.7806348447214
_cell_length_b       6.7806348447214
_cell_length_c       10.993743
_cell_angle_alpha    90.0
_cell_angle_beta     90.0
_cell_angle_gamma    110.32517840843863

_space_group_name_H-M_alt    "P 1"
_space_group_IT_number       1

loop_
  _space_group_symop_operation_xyz
  'x, y, z'

loop_
  _atom_site_type_symbol
  _atom_site_label
  _atom_site_symmetry_multiplicity
  _atom_site_fract_x
  _atom_site_fract_y
  _atom_site_fract_z
  _atom_site_occupancy
  Re  Re1       1.0  0.7360689628119091  0.6945277410244285  0.7604297565018767  1.0000
  Re  Re2       1.0  0.35207464338219996  0.49767689764333006  0.273204823922382  1.0000
  C   C1        1.0  0.6271191111842247  0.6796322281899687  0.3278099688265036  1.0000
  C   C2        1.0  0.7864099127596361  0.6365837217724084  0.9468852081948377  1.0000
  C   C3        1.0  0.4068911408368744  0.6819494432778465  0.12849896224780727  1.0000
  C   C4        1.0  0.5327235446056794  0.32476326118967114  0.2524996178656765  1.0000
  C   C5        1.0  0.9545816135114775  0.9065983967107349  0.6754517679728032  1.0000
  C   C6        1.0  0.8135207664686426  0.4988210240226439  0.685388277145063  1.0000
  C   C7        1.0  0.6913867185701017  0.9982849583549626  0.8186775610757479  1.0000
  C   C8        1.0  0.3819452538631338  0.7909177157535585  0.3328874539024664  1.0000
  C   C9        1.0  0.5795911445178545  0.7988978591927068  0.6361667112012592  1.0000
  C   C10       1.0  0.17583079409457902  0.39788951238964687  0.4213811801445826  1.0000
  I   I1        1.0  0.2621122349939842  0.5893206686869323  0.8340380508365123  1.0000
  I   I2        1.0  0.14627727341144592  0.22322837687614328  0.06143135857987727  1.0000
  O   O1        1.0  0.9006093430961183  0.6604694112140812  0.0324699501196708  1.0000
  O   O2        1.0  0.5533917705277065  0.0639664196422074  0.8445077071244536  1.0000
  O   O3        1.0  0.038800073606879655  0.3569637646561974  0.48144716422685174  1.0000
  O   O4        1.0  0.8817963183181271  0.3576055042966439  0.6903763870944192  1.0000
  O   O5        1.0  0.8126434618807032  0.7928808240874992  0.3298088370363579  1.0000
  O   O6        1.0  0.37325566036186636  0.9577877395689534  0.3438822346373326  1.0000
  O   O7        1.0  0.4724110787869971  0.807501651687525  0.05397885248534532  1.0000
  O   O8        1.0  0.08493817223428346  0.013403898772953069  0.6224174788522567  1.0000
  O   O9        1.0  0.47021502257854825  0.8634759529785517  0.5776348932152066  1.0000
  O   O10       1.0  0.69294016700781  0.2992645939286087  0.24668688929150967  1.0000
data_image159
_chemical_formula_structural       Re2C10I2O10
_chemical_formula_sum              "Re2 C10 I2 O10"
_cell_length_a       6.7806348447214
_cell_length_b       6.7806348447214
_cell_length_c       10.993743
_cell_angle_alpha    90.0
_cell_angle_beta     90.0
_cell_angle_gamma    110.32517840843863

_space_group_name_H-M_alt    "P 1"
_space_group_IT_number       1

loop_
  _space_group_symop_operation_xyz
  'x, y, z'

loop_
  _atom_site_type_symbol
  _atom_site_label
  _atom_site_symmetry_multiplicity
  _atom_site_fract_x
  _atom_site_fract_y
  _atom_site_fract_z
  _atom_site_occupancy
  Re  Re1       1.0  0.7061617844986086  0.725204879042254  0.7684465712447957  1.0000
  Re  Re2       1.0  0.37032904186780297  0.4943493037638163  0.2744460080222423  1.0000
  C   C1        1.0  0.6695063125708185  0.6920539284732861  0.32821145338162866  1.0000
  C   C2        1.0  0.7383119387076391  0.7405909774792843  0.9326590254370712  1.0000
  C   C3        1.0  0.37764961050698037  0.6640557737620003  0.12864834301914677  1.0000
  C   C4        1.0  0.5565667581867622  0.32991424825629145  0.2589207212329997  1.0000
  C   C5        1.0  0.8690047118016619  0.8194642894561505  0.6064821927670182  1.0000
  C   C6        1.0  0.8753619390269959  0.5182614982903356  0.7550685284426242  1.0000
  C   C7        1.0  0.6967096719406545  0.019401474346943948  0.8223385686588004  1.0000
  C   C8        1.0  0.33109231827747465  0.7559123890730033  0.2978275424079526  1.0000
  C   C9        1.0  0.625973120163611  0.7873331350318753  0.5936199448253695  1.0000
  C   C10       1.0  0.16532969913305948  0.4510692525510751  0.45536390430283263  1.0000
  I   I1        1.0  0.31009764300700515  0.5400569541054366  0.7992169654183203  1.0000
  I   I2        1.0  0.14583076022078356  0.24253117873245444  0.10019922146060241  1.0000
  O   O1        1.0  0.8108305599775161  0.67807545677417  0.015382617229189766  1.0000
  O   O2        1.0  0.6669714088110541  0.09618885852020287  0.9139803189283308  1.0000
  O   O3        1.0  0.0007052954101489455  0.41687809403742504  0.4779452925788838  1.0000
  O   O4        1.0  0.877204243401092  0.33667416810976764  0.7425614466147845  1.0000
  O   O5        1.0  0.8344317286535253  0.8148795577111052  0.3288857931933606  1.0000
  O   O6        1.0  0.29063765066438535  0.9040177682125654  0.3202164632832054  1.0000
  O   O7        1.0  0.39205968161043536  0.794426152023525  0.065299898520014  1.0000
  O   O8        1.0  0.997688784729281  0.9476947687514838  0.5422697524022615  1.0000
  O   O9        1.0  0.5340076796259292  0.7687543555080252  0.5010889688945125  1.0000
  O   O10       1.0  0.690206500931307  0.2950771689159646  0.2167836806739723  1.0000
data_image160
_chemical_formula_structural       Re2C10I2O10
_chemical_formula_sum              "Re2 C10 I2 O10"
_cell_length_a       6.7806348447214
_cell_length_b       6.7806348447214
_cell_length_c       10.993743
_cell_angle_alpha    90.0
_cell_angle_beta     90.0
_cell_angle_gamma    110.32517840843863

_space_group_name_H-M_alt    "P 1"
_space_group_IT_number       1

loop_
  _space_group_symop_operation_xyz
  'x, y, z'

loop_
  _atom_site_type_symbol
  _atom_site_label
  _atom_site_symmetry_multiplicity
  _atom_site_fract_x
  _atom_site_fract_y
  _atom_site_fract_z
  _atom_site_occupancy
  Re  Re1       1.0  0.7165324987572538  0.753654531366333  0.7719110317020765  1.0000
  Re  Re2       1.0  0.37631766257513444  0.5158019304624429  0.2583612464575415  1.0000
  C   C1        1.0  0.6334630514851093  0.7733529773041787  0.3076630035308643  1.0000
  C   C2        1.0  0.8423478119363028  0.7470044455299787  0.9401968221721407  1.0000
  C   C3        1.0  0.3671542604444926  0.6823506701844213  0.12798684908586286  1.0000
  C   C4        1.0  0.6067428086371803  0.3579604509247088  0.21290762230136195  1.0000
  C   C5        1.0  0.9907033684070092  0.9268302347480545  0.6922408702913344  1.0000
  C   C6        1.0  0.8535817717607391  0.5307988435841718  0.7049596439704943  1.0000
  C   C7        1.0  0.7347431319580955  0.02465626856337977  0.8157680173009991  1.0000
  C   C8        1.0  0.30062035017580435  0.7347374967205735  0.3431946383894477  1.0000
  C   C9        1.0  0.5546144680411091  0.7288138424362327  0.6021162571146716  1.0000
  C   C10       1.0  0.124895723622684  0.3848102334077801  0.3806389882154941  1.0000
  I   I1        1.0  0.29745642056578303  0.5160680001953889  0.8017805673086865  1.0000
  I   I2        1.0  0.12849786294590126  0.18793314187844923  0.11658388194472974  1.0000
  O   O1        1.0  0.9029451010900181  0.7471694753285825  0.043119261035465595  1.0000
  O   O2        1.0  0.719301046247709  0.17056437127813262  0.8595117070350003  1.0000
  O   O3        1.0  0.9533295068346345  0.27488693989479573  0.4044902493465262  1.0000
  O   O4        1.0  0.8839086112635371  0.3884025773627419  0.6591115338628877  1.0000
  O   O5        1.0  0.7890843641992055  0.8947327250192589  0.3505898041712957  1.0000
  O   O6        1.0  0.25144478533321635  0.8522498499544164  0.40430426568045497  1.0000
  O   O7        1.0  0.2951819862066596  0.7857752589983221  0.06729509146471888  1.0000
  O   O8        1.0  0.14150635669154799  0.0553410736064385  0.6253329696217387  1.0000
  O   O9        1.0  0.4380950375441437  0.6019738807443589  0.5356460211157721  1.0000
  O   O10       1.0  0.6940021387250873  0.24285828667472376  0.21645855951414503  1.0000
data_image161
_chemical_formula_structural       Re2C10I2O10
_chemical_formula_sum              "Re2 C10 I2 O10"
_cell_length_a       6.7806348447214
_cell_length_b       6.7806348447214
_cell_length_c       10.993743
_cell_angle_alpha    90.0
_cell_angle_beta     90.0
_cell_angle_gamma    110.32517840843863

_space_group_name_H-M_alt    "P 1"
_space_group_IT_number       1

loop_
  _space_group_symop_operation_xyz
  'x, y, z'

loop_
  _atom_site_type_symbol
  _atom_site_label
  _atom_site_symmetry_multiplicity
  _atom_site_fract_x
  _atom_site_fract_y
  _atom_site_fract_z
  _atom_site_occupancy
  Re  Re1       1.0  0.7540087998668917  0.7807237453030278  0.7544600390611648  1.0000
  Re  Re2       1.0  0.36016309219777193  0.5305587111027749  0.2354914228584623  1.0000
  C   C1        1.0  0.5779684049890471  0.741297495420097  0.29955877637000283  1.0000
  C   C2        1.0  0.8273649633850085  0.8127438683156907  0.9304062409819106  1.0000
  C   C3        1.0  0.35732831128398634  0.7158785172882531  0.09448745652420074  1.0000
  C   C4        1.0  0.5591063336254454  0.3864203084575954  0.1861413188255042  1.0000
  C   C5        1.0  0.05845274789965327  0.9175848605718505  0.765826185217621  1.0000
  C   C6        1.0  0.7956570344622527  0.5670439806050205  0.6419922104821103  1.0000
  C   C7        1.0  0.7099162403787047  0.05763441722808227  0.7962932961738329  1.0000
  C   C8        1.0  0.2955406306834019  0.6736088660725386  0.4004373779408198  1.0000
  C   C9        1.0  0.5016954961905871  0.5681623370615451  0.6633436359055099  1.0000
  C   C10       1.0  0.13624837138462992  0.3883409056144562  0.35861707809673  1.0000
  I   I1        1.0  0.31438648200261987  0.5430600924212916  0.8389248453706374  1.0000
  I   I2        1.0  0.11929955726063945  0.15517913397349703  0.12016480656246828  1.0000
  O   O1        1.0  0.7494858314101179  0.6938110196155571  0.00990138848756894  1.0000
  O   O2        1.0  0.6909902181108083  0.1225582599009194  0.8855734882366078  1.0000
  O   O3        1.0  0.0169778657034335  0.24803670526053034  0.4127967976510907  1.0000
  O   O4        1.0  0.8115052851330818  0.42946638865864056  0.5878811196767866  1.0000
  O   O5        1.0  0.7608713780778721  0.8107026081257247  0.3248916320072827  1.0000
  O   O6        1.0  0.244070849239062  0.7646015644442037  0.47623328437093415  1.0000
  O   O7        1.0  0.3198629290214326  0.8167923610920997  0.024074460425162612  1.0000
  O   O8        1.0  0.2615216209247384  0.0030747988685705897  0.7889252877858578  1.0000
  O   O9        1.0  0.37217950288727863  0.4287103494750367  0.6053417078114866  1.0000
  O   O10       1.0  0.681384043243809  0.3039629414957898  0.19276260313851956  1.0000
data_image162
_chemical_formula_structural       Re2C10I2O10
_chemical_formula_sum              "Re2 C10 I2 O10"
_cell_length_a       6.7806348447214
_cell_length_b       6.7806348447214
_cell_length_c       10.993743
_cell_angle_alpha    90.0
_cell_angle_beta     90.0
_cell_angle_gamma    110.32517840843863

_space_group_name_H-M_alt    "P 1"
_space_group_IT_number       1

loop_
  _space_group_symop_operation_xyz
  'x, y, z'

loop_
  _atom_site_type_symbol
  _atom_site_label
  _atom_site_symmetry_multiplicity
  _atom_site_fract_x
  _atom_site_fract_y
  _atom_site_fract_z
  _atom_site_occupancy
  Re  Re1       1.0  0.7664284260159268  0.7963029556395443  0.7424225896879616  1.0000
  Re  Re2       1.0  0.3181347727707707  0.49225846822058655  0.24818803797688846  1.0000
  C   C1        1.0  0.5745123265768205  0.6874086020451577  0.32466362806997323  1.0000
  C   C2        1.0  0.87278260896679  0.7250394417037385  0.8977460105920134  1.0000
  C   C3        1.0  0.4042635091212137  0.7786097462344292  0.14250135854781676  1.0000
  C   C4        1.0  0.5637731830641755  0.40614545103578786  0.18383727959314852  1.0000
  C   C5        1.0  0.0441976471248986  0.9094412849318214  0.7216538778039423  1.0000
  C   C6        1.0  0.8136415423562346  0.5232413584240846  0.6614921147672538  1.0000
  C   C7        1.0  0.7404558663105072  0.08108768262637223  0.7686861254091012  1.0000
  C   C8        1.0  0.307808387405185  0.6656050345746711  0.3951852163577638  1.0000
  C   C9        1.0  0.540713168315965  0.5855383320755544  0.6304563478827732  1.0000
  C   C10       1.0  0.13655951841057076  0.2801641180680505  0.3479424681329327  1.0000
  I   I1        1.0  0.35521836015660935  0.5646202352698124  0.8621936096090977  1.0000
  I   I2        1.0  0.05519813382061978  0.17571680876012052  0.105171212779641  1.0000
  O   O1        1.0  0.8325829410764114  0.6577355487197016  0.003457961862738612  1.0000
  O   O2        1.0  0.7786379272155952  0.22864977990006885  0.8169793080007964  1.0000
  O   O3        1.0  0.9793601855801318  0.1523591186939175  0.3957561116146876  1.0000
  O   O4        1.0  0.8590914959495743  0.39098471194331996  0.629509877416563  1.0000
  O   O5        1.0  0.748174960489314  0.8070513780125597  0.34792992209100376  1.0000
  O   O6        1.0  0.27689600680381093  0.7413303772632001  0.4852561183917598  1.0000
  O   O7        1.0  0.4920757962696171  0.9416479323357202  0.12247588121103889  1.0000
  O   O8        1.0  0.2061819874608659  0.042862925808260705  0.7338961830497487  1.0000
  O   O9        1.0  0.4370942981286144  0.4101430580044176  0.5977937608504851  1.0000
  O   O10       1.0  0.6805117507602407  0.3218131759717819  0.14684880586865953  1.0000
data_image163
_chemical_formula_structural       Re2C10I2O10
_chemical_formula_sum              "Re2 C10 I2 O10"
_cell_length_a       6.7806348447214
_cell_length_b       6.7806348447214
_cell_length_c       10.993743
_cell_angle_alpha    90.0
_cell_angle_beta     90.0
_cell_angle_gamma    110.32517840843863

_space_group_name_H-M_alt    "P 1"
_space_group_IT_number       1

loop_
  _space_group_symop_operation_xyz
  'x, y, z'

loop_
  _atom_site_type_symbol
  _atom_site_label
  _atom_site_symmetry_multiplicity
  _atom_site_fract_x
  _atom_site_fract_y
  _atom_site_fract_z
  _atom_site_occupancy
  Re  Re1       1.0  0.8008356394969961  0.8016370956199331  0.7317132609001978  1.0000
  Re  Re2       1.0  0.2807707876994637  0.46643662414443554  0.2737464490706884  1.0000
  C   C1        1.0  0.5612994854045829  0.5198861722615842  0.3118363498940977  1.0000
  C   C2        1.0  0.8944613068791023  0.7862070194598442  0.8944713225476024  1.0000
  C   C3        1.0  0.39674833066535076  0.740573696959958  0.14113890308042598  1.0000
  C   C4        1.0  0.46796938357398565  0.35895681948919234  0.17621411106109675  1.0000
  C   C5        1.0  0.061943645836575634  0.017368414573826575  0.6927422100541689  1.0000
  C   C6        1.0  0.991426997329615  0.6746585173434075  0.6498484642611194  1.0000
  C   C7        1.0  0.6509426390560584  0.007312894670136627  0.7930028486850438  1.0000
  C   C8        1.0  0.3253150979318654  0.6970030379749634  0.3896338441956868  1.0000
  C   C9        1.0  0.5186968587629396  0.6402355148736817  0.6354766554463912  1.0000
  C   C10       1.0  0.1511897708566325  0.20692211055355214  0.36551841695452153  1.0000
  I   I1        1.0  0.3362815222305132  0.5599649923006705  0.8530557521501773  1.0000
  I   I2        1.0  0.04872774226687149  0.20404080265841973  0.11391754625291921  1.0000
  O   O1        1.0  0.9936785317125596  0.7906016335003587  0.9739123921973608  1.0000
  O   O2        1.0  0.5740965621362779  0.10537354128895471  0.851774944909837  1.0000
  O   O3        1.0  0.11676150565501016  0.07068126544103359  0.4326140948846274  1.0000
  O   O4        1.0  0.07070683639558172  0.6104479042107798  0.5862882429001556  1.0000
  O   O5        1.0  0.7236553529840276  0.5928336535347452  0.36048708356094866  1.0000
  O   O6        1.0  0.36749464324282355  0.8261575350971571  0.45761718231378173  1.0000
  O   O7        1.0  0.43867657865992243  0.8228931661629466  0.05613795299954522  1.0000
  O   O8        1.0  0.24359214380568606  0.13895780913924605  0.7025390887145595  1.0000
  O   O9        1.0  0.4251481775560777  0.5168335617670392  0.5619241347974866  1.0000
  O   O10       1.0  0.5614034088877244  0.25354221184002407  0.13899435070545588  1.0000
data_image164
_chemical_formula_structural       Re2C10I2O10
_chemical_formula_sum              "Re2 C10 I2 O10"
_cell_length_a       6.7806348447214
_cell_length_b       6.7806348447214
_cell_length_c       10.993743
_cell_angle_alpha    90.0
_cell_angle_beta     90.0
_cell_angle_gamma    110.32517840843863

_space_group_name_H-M_alt    "P 1"
_space_group_IT_number       1

loop_
  _space_group_symop_operation_xyz
  'x, y, z'

loop_
  _atom_site_type_symbol
  _atom_site_label
  _atom_site_symmetry_multiplicity
  _atom_site_fract_x
  _atom_site_fract_y
  _atom_site_fract_z
  _atom_site_occupancy
  Re  Re1       1.0  0.8049996925361673  0.7826782718424175  0.7210686048321238  1.0000
  Re  Re2       1.0  0.2834202817945464  0.4635776683964066  0.2817075862136937  1.0000
  C   C1        1.0  0.5422268697653683  0.5092925830731783  0.37265882615871593  1.0000
  C   C2        1.0  0.9509566448466847  0.7930980087751214  0.8902505755596598  1.0000
  C   C3        1.0  0.373632644187604  0.7367091356534865  0.18947856070695399  1.0000
  C   C4        1.0  0.4956673788258166  0.34611596722741256  0.1953957182562359  1.0000
  C   C5        1.0  0.893666376983649  0.06718674884424987  0.6825242362993241  1.0000
  C   C6        1.0  0.9860363233900246  0.6976135941699873  0.6027238029669073  1.0000
  C   C7        1.0  0.7062191231145198  0.9752921929288172  0.8083911050232904  1.0000
  C   C8        1.0  0.3313234038386266  0.7206600996612549  0.3819631035132171  1.0000
  C   C9        1.0  0.5170401397736885  0.5578089772472629  0.6637118147441157  1.0000
  C   C10       1.0  0.022214496351319186  0.28214607227539945  0.38044745287050125  1.0000
  I   I1        1.0  0.39636836583722923  0.5186236345391205  0.8521025987171762  1.0000
  I   I2        1.0  0.05654906205197929  0.249497852631691  0.10071309563453261  1.0000
  O   O1        1.0  0.0525820787238489  0.8397619144476174  0.9719749556889311  1.0000
  O   O2        1.0  0.6819347900019332  0.10517322944564222  0.8791316669673983  1.0000
  O   O3        1.0  0.8817083802709497  0.16568968240902748  0.41514286026626723  1.0000
  O   O4        1.0  0.04327042336436328  0.611681976944571  0.5339106042532463  1.0000
  O   O5        1.0  0.6832878461180547  0.4556525814323735  0.4063308964344768  1.0000
  O   O6        1.0  0.31728731161086315  0.879592626896375  0.4233358164628586  1.0000
  O   O7        1.0  0.3327411927944799  0.8443532456669702  0.12288382819342236  1.0000
  O   O8        1.0  0.986822331265041  0.257631292535198  0.671600280860184  1.0000
  O   O9        1.0  0.42868557091486625  0.4610888812791365  0.58042115010937  1.0000
  O   O10       1.0  0.6304164998206896  0.2907405582656411  0.16526462741445574  1.0000
data_image165
_chemical_formula_structural       Re2C10I2O10
_chemical_formula_sum              "Re2 C10 I2 O10"
_cell_length_a       6.7806348447214
_cell_length_b       6.7806348447214
_cell_length_c       10.993743
_cell_angle_alpha    90.0
_cell_angle_beta     90.0
_cell_angle_gamma    110.32517840843863

_space_group_name_H-M_alt    "P 1"
_space_group_IT_number       1

loop_
  _space_group_symop_operation_xyz
  'x, y, z'

loop_
  _atom_site_type_symbol
  _atom_site_label
  _atom_site_symmetry_multiplicity
  _atom_site_fract_x
  _atom_site_fract_y
  _atom_site_fract_z
  _atom_site_occupancy
  Re  Re1       1.0  0.778464826837441  0.7920708904134074  0.7364331535255093  1.0000
  Re  Re2       1.0  0.29741677778819553  0.4669507582343147  0.29941917540365076  1.0000
  C   C1        1.0  0.5659316675384397  0.5643434581563509  0.3970102710276298  1.0000
  C   C2        1.0  0.9537938300516046  0.7286277582574734  0.8557691891722826  1.0000
  C   C3        1.0  0.3910402700685829  0.6641668364404609  0.15725791646377163  1.0000
  C   C4        1.0  0.38155390655394994  0.2592500508973068  0.20747806300701563  1.0000
  C   C5        1.0  0.790619624394908  0.08699328994757277  0.6804527121727689  1.0000
  C   C6        1.0  0.03813171122663079  0.7718698151034007  0.6280751610780455  1.0000
  C   C7        1.0  0.6283423513464466  0.9199122430498862  0.8506419354285154  1.0000
  C   C8        1.0  0.32648016676750724  0.7427122141180864  0.3573249033080551  1.0000
  C   C9        1.0  0.5524222209358204  0.6066174098756918  0.6245141085872866  1.0000
  C   C10       1.0  0.005747388268383949  0.30591400954956693  0.35907187083760095  1.0000
  I   I1        1.0  0.4725510611277508  0.45265806270417774  0.8599449023489973  1.0000
  I   I2        1.0  0.04205037549747814  0.30718380605627205  0.05422826366660686  1.0000
  O   O1        1.0  0.08444047686385203  0.6931809838798918  0.9098337181177374  1.0000
  O   O2        1.0  0.5382288976638354  0.990908333441568  0.9224895583522819  1.0000
  O   O3        1.0  0.8430436675015072  0.1912064195021861  0.39572504523831226  1.0000
  O   O4        1.0  0.1404393658969368  0.706087368989271  0.5618207987189767  1.0000
  O   O5        1.0  0.7313175595504281  0.6453491322254692  0.4409032654791082  1.0000
  O   O6        1.0  0.3497533938254171  0.9100527177505744  0.3985529900261426  1.0000
  O   O7        1.0  0.43092447337409656  0.8018508056773141  0.09812741591627797  1.0000
  O   O8        1.0  0.836008003424908  0.2501503377689568  0.6588496795800763  1.0000
  O   O9        1.0  0.39099975837217477  0.4863658337110429  0.5796507531956123  1.0000
  O   O10       1.0  0.4913672426126352  0.17306604145765803  0.16439299138712613  1.0000
data_image166
_chemical_formula_structural       Re2C10I2O10
_chemical_formula_sum              "Re2 C10 I2 O10"
_cell_length_a       6.7806348447214
_cell_length_b       6.7806348447214
_cell_length_c       10.993743
_cell_angle_alpha    90.0
_cell_angle_beta     90.0
_cell_angle_gamma    110.32517840843863

_space_group_name_H-M_alt    "P 1"
_space_group_IT_number       1

loop_
  _space_group_symop_operation_xyz
  'x, y, z'

loop_
  _atom_site_type_symbol
  _atom_site_label
  _atom_site_symmetry_multiplicity
  _atom_site_fract_x
  _atom_site_fract_y
  _atom_site_fract_z
  _atom_site_occupancy
  Re  Re1       1.0  0.7696761322339333  0.836350029343909  0.7699781215247692  1.0000
  Re  Re2       1.0  0.31008180766651894  0.4731594764778405  0.27953019635240783  1.0000
  C   C1        1.0  0.6187758207012768  0.61810978354589  0.34686758903042725  1.0000
  C   C2        1.0  0.017639529204589  0.8051258445006084  0.8822843730940766  1.0000
  C   C3        1.0  0.4417004367246833  0.6096193654442269  0.13235143227321694  1.0000
  C   C4        1.0  0.24798444061175573  0.21890733200321538  0.19179899849371296  1.0000
  C   C5        1.0  0.8029407385348202  0.12184027984559515  0.6983274645457558  1.0000
  C   C6        1.0  0.9651535183270492  0.7875145866855373  0.6704755286128862  1.0000
  C   C7        1.0  0.553009233289794  0.8992119279977949  0.8767144201884103  1.0000
  C   C8        1.0  0.3080420357983288  0.7735202180234337  0.3120737154893597  1.0000
  C   C9        1.0  0.5311952938112657  0.6489002932454524  0.6783294689800878  1.0000
  C   C10       1.0  0.998285308946225  0.39336374063738067  0.3248522934614577  1.0000
  I   I1        1.0  0.5296635167405478  0.43870084864951914  0.8820558970339588  1.0000
  I   I2        1.0  0.02843337717501515  0.20388119501985924  0.02828456881501587  1.0000
  O   O1        1.0  0.09245186079136625  0.7077125734571352  0.9410324259204685  1.0000
  O   O2        1.0  0.4724660412767898  0.01619017096786468  0.9115212665208049  1.0000
  O   O3        1.0  0.8062499991248451  0.299428330981657  0.3188163229317756  1.0000
  O   O4        1.0  0.06876249057923406  0.7513852957073776  0.595181839041073  1.0000
  O   O5        1.0  0.7896177428981953  0.6713009270670454  0.3644000295302096  1.0000
  O   O6        1.0  0.31128213687029477  0.9164889194234553  0.3723738250383125  1.0000
  O   O7        1.0  0.5464989988016467  0.7456653774244876  0.0770952482123545  1.0000
  O   O8        1.0  0.8084666681914818  0.24320253732765554  0.6188194919260211  1.0000
  O   O9        1.0  0.3629117442667289  0.5634982954856309  0.653433369411317  1.0000
  O   O10       1.0  0.27877367669940745  0.07778428355912913  0.1559460840998025  1.0000
data_image167
_chemical_formula_structural       Re2C10I2O10
_chemical_formula_sum              "Re2 C10 I2 O10"
_cell_length_a       6.7806348447214
_cell_length_b       6.7806348447214
_cell_length_c       10.993743
_cell_angle_alpha    90.0
_cell_angle_beta     90.0
_cell_angle_gamma    110.32517840843863

_space_group_name_H-M_alt    "P 1"
_space_group_IT_number       1

loop_
  _space_group_symop_operation_xyz
  'x, y, z'

loop_
  _atom_site_type_symbol
  _atom_site_label
  _atom_site_symmetry_multiplicity
  _atom_site_fract_x
  _atom_site_fract_y
  _atom_site_fract_z
  _atom_site_occupancy
  Re  Re1       1.0  0.7378018551856855  0.8541629619818453  0.7869550420363598  1.0000
  Re  Re2       1.0  0.35570422217880066  0.49859250096594276  0.28169516756929347  1.0000
  C   C1        1.0  0.6328893582775884  0.624652654002795  0.3471114106508739  1.0000
  C   C2        1.0  0.8344394451522685  0.7427838966964031  0.9391275141583874  1.0000
  C   C3        1.0  0.5247103676471505  0.7103853567438607  0.16622993451821663  1.0000
  C   C4        1.0  0.41159735870731673  0.3445159847195386  0.16295426915032338  1.0000
  C   C5        1.0  0.8358107569362838  0.13275508836249028  0.708340455000871  1.0000
  C   C6        1.0  0.9112279526591229  0.8293919312560476  0.6540796839141638  1.0000
  C   C7        1.0  0.5215333490098661  0.9187830382475376  0.8854538217743099  1.0000
  C   C8        1.0  0.3529002346257851  0.7362496467500328  0.3771946226805943  1.0000
  C   C9        1.0  0.4699631757544912  0.6648647747353265  0.654224889254191  1.0000
  C   C10       1.0  0.026738242881397818  0.3816466846675217  0.24318691055715805  1.0000
  I   I1        1.0  0.560764643103969  0.4116036452761637  0.8727141882426407  1.0000
  I   I2        1.0  0.9793503703830502  0.14177981568433162  0.0014041112591466614  1.0000
  O   O1        1.0  0.8844465875427842  0.6261164422286238  0.9976757965183456  1.0000
  O   O2        1.0  0.36305028963230823  0.9059845708397204  0.9298650832865901  1.0000
  O   O3        1.0  0.8434638215660896  0.26004431466956124  0.23252635080757914  1.0000
  O   O4        1.0  0.04961371623406439  0.7996972866449851  0.605009409955078  1.0000
  O   O5        1.0  0.8096469738607718  0.7130004751274288  0.3591700187601107  1.0000
  O   O6        1.0  0.3556254403343323  0.8797216470504892  0.4407813067955207  1.0000
  O   O7        1.0  0.6205471293948862  0.8512917544172994  0.11374449500853606  1.0000
  O   O8        1.0  0.8619568736981549  0.2639516326803123  0.6265024746133878  1.0000
  O   O9        1.0  0.3094852264439879  0.5890354516492814  0.6315050745985618  1.0000
  O   O10       1.0  0.39990940191404545  0.17656885982318768  0.11915557183920573  1.0000
data_image168
_chemical_formula_structural       Re2C10I2O10
_chemical_formula_sum              "Re2 C10 I2 O10"
_cell_length_a       6.7806348447214
_cell_length_b       6.7806348447214
_cell_length_c       10.993743
_cell_angle_alpha    90.0
_cell_angle_beta     90.0
_cell_angle_gamma    110.32517840843863

_space_group_name_H-M_alt    "P 1"
_space_group_IT_number       1

loop_
  _space_group_symop_operation_xyz
  'x, y, z'

loop_
  _atom_site_type_symbol
  _atom_site_label
  _atom_site_symmetry_multiplicity
  _atom_site_fract_x
  _atom_site_fract_y
  _atom_site_fract_z
  _atom_site_occupancy
  Re  Re1       1.0  0.6884951803531141  0.8320778672584426  0.802166497511878  1.0000
  Re  Re2       1.0  0.41453464145449  0.547365002369825  0.31062608572975997  1.0000
  C   C1        1.0  0.700227577083153  0.6586463191919363  0.34496641969989256  1.0000
  C   C2        1.0  0.8176476456377034  0.7120413681559822  0.9143700825515814  1.0000
  C   C3        1.0  0.45887642777053855  0.7473246349437663  0.18224968981236397  1.0000
  C   C4        1.0  0.5271742531048307  0.35701786446250905  0.20582014259167414  1.0000
  C   C5        1.0  0.7984606555762834  0.1053490289982749  0.7077823222915476  1.0000
  C   C6        1.0  0.8452680281038851  0.7714061902893419  0.650537430489965  1.0000
  C   C7        1.0  0.43471048553780367  0.8612069911660423  0.8594406093589522  1.0000
  C   C8        1.0  0.3425998076845276  0.7478582910497262  0.4019600941783599  1.0000
  C   C9        1.0  0.5410099229821301  0.6442028008291291  0.6537185729528279  1.0000
  C   C10       1.0  0.11838590211768701  0.35711854543154997  0.2847196750352725  1.0000
  I   I1        1.0  0.5445291144650993  0.37086961897393417  0.856472522209857  1.0000
  I   I2        1.0  0.9622336749934238  0.15786242380786075  0.9550813089715419  1.0000
  O   O1        1.0  0.9403810252101362  0.6911885534309387  0.9940549824127163  1.0000
  O   O2        1.0  0.2642813353517477  0.8818228367296417  0.8572084223436551  1.0000
  O   O3        1.0  0.9452433212078493  0.24909499567744442  0.3002531290533551  1.0000
  O   O4        1.0  0.9463377157374777  0.7143661980819309  0.5842791947427511  1.0000
  O   O5        1.0  0.8804264288501678  0.7390184517314673  0.3293130311219465  1.0000
  O   O6        1.0  0.3045546556395215  0.8844592483485596  0.4545857752008114  1.0000
  O   O7        1.0  0.4985490188512988  0.8735679856083649  0.11081758298375417  1.0000
  O   O8        1.0  0.8071548534095228  0.2365137867576208  0.6365936138541404  1.0000
  O   O9        1.0  0.4163965414464524  0.5397155071034597  0.5605700791668893  1.0000
  O   O10       1.0  0.6001772159067698  0.23673106563110569  0.16157960562927154  1.0000
data_image169
_chemical_formula_structural       Re2C10I2O10
_chemical_formula_sum              "Re2 C10 I2 O10"
_cell_length_a       6.7806348447214
_cell_length_b       6.7806348447214
_cell_length_c       10.993743
_cell_angle_alpha    90.0
_cell_angle_beta     90.0
_cell_angle_gamma    110.32517840843863

_space_group_name_H-M_alt    "P 1"
_space_group_IT_number       1

loop_
  _space_group_symop_operation_xyz
  'x, y, z'

loop_
  _atom_site_type_symbol
  _atom_site_label
  _atom_site_symmetry_multiplicity
  _atom_site_fract_x
  _atom_site_fract_y
  _atom_site_fract_z
  _atom_site_occupancy
  Re  Re1       1.0  0.7183046649857728  0.8146643578779356  0.7867098540862075  1.0000
  Re  Re2       1.0  0.42114070508762486  0.5817493842303736  0.3233806251811675  1.0000
  C   C1        1.0  0.7401766216585876  0.6470836029908944  0.3328068125818384  1.0000
  C   C2        1.0  0.8049301754283802  0.7177319752071231  0.9480839369381985  1.0000
  C   C3        1.0  0.37950066037746527  0.6890007235858442  0.17304834171642572  1.0000
  C   C4        1.0  0.4984326421245099  0.3580803818806139  0.24609668547226657  1.0000
  C   C5        1.0  0.7661370773570781  0.06636907602830348  0.7002347959397991  1.0000
  C   C6        1.0  0.7978299889148146  0.7005946142444047  0.6271448821903903  1.0000
  C   C7        1.0  0.40758363940880304  0.7311802450354222  0.8223850775199714  1.0000
  C   C8        1.0  0.32205227544669773  0.8505089749939956  0.5893925716522874  1.0000
  C   C9        1.0  0.5747483184043587  0.5846653368168759  0.6433887067727098  1.0000
  C   C10       1.0  0.16373089854762227  0.32938196223230376  0.32896008102780994  1.0000
  I   I1        1.0  0.5089289626036264  0.4131002179842506  0.8498097414000974  1.0000
  I   I2        1.0  0.0017341703381315021  0.16576278776164144  0.9235305910280809  1.0000
  O   O1        1.0  0.8053941187425241  0.6806648683328588  0.049636961823373627  1.0000
  O   O2        1.0  0.2766968767046918  0.7714314110703134  0.8873226192881387  1.0000
  O   O3        1.0  0.021950072033296342  0.1877511861521315  0.36426449725225607  1.0000
  O   O4        1.0  0.8828032726969202  0.6450534545705031  0.5503354527690706  1.0000
  O   O5        1.0  0.9116787963403555  0.7608910776774875  0.2835312494725778  1.0000
  O   O6        1.0  0.28127092476042137  0.992322981325424  0.5589047553248677  1.0000
  O   O7        1.0  0.3164448643767689  0.7547037215143358  0.08510003330507453  1.0000
  O   O8        1.0  0.7308954183584113  0.17369952448361506  0.631281235472684  1.0000
  O   O9        1.0  0.48815108686953  0.47968661632043236  0.5671830811845491  1.0000
  O   O10       1.0  0.5137092440933998  0.21871434541396437  0.18996265673198945  1.0000
data_image170
_chemical_formula_structural       Re2C10I2O10
_chemical_formula_sum              "Re2 C10 I2 O10"
_cell_length_a       6.7806348447214
_cell_length_b       6.7806348447214
_cell_length_c       10.993743
_cell_angle_alpha    90.0
_cell_angle_beta     90.0
_cell_angle_gamma    110.32517840843863

_space_group_name_H-M_alt    "P 1"
_space_group_IT_number       1

loop_
  _space_group_symop_operation_xyz
  'x, y, z'

loop_
  _atom_site_type_symbol
  _atom_site_label
  _atom_site_symmetry_multiplicity
  _atom_site_fract_x
  _atom_site_fract_y
  _atom_site_fract_z
  _atom_site_occupancy
  Re  Re1       1.0  0.6895371964588488  0.7931716179774683  0.7552760350264182  1.0000
  Re  Re2       1.0  0.44715121676648745  0.5699985763435843  0.29433440521412607  1.0000
  C   C1        1.0  0.736795000982621  0.6940386834548737  0.3961103734544388  1.0000
  C   C2        1.0  0.6860315932594819  0.8480073439002259  0.025506601907339332  1.0000
  C   C3        1.0  0.26245827944668904  0.5917270886847815  0.15410402584383198  1.0000
  C   C4        1.0  0.4416203014152945  0.296463714548665  0.26819882717150134  1.0000
  C   C5        1.0  0.7964013491336652  0.10330127193012205  0.7034462882477099  1.0000
  C   C6        1.0  0.9220898824869189  0.7271445129392913  0.7112075751875943  1.0000
  C   C7        1.0  0.39312047304291475  0.7252834360279192  0.8334721795567417  1.0000
  C   C8        1.0  0.3622811192659751  0.13146218869281512  0.6643682737474  1.0000
  C   C9        1.0  0.4901156904904972  0.6866344520596949  0.6415242348516592  1.0000
  C   C10       1.0  0.18527668974336278  0.4475072458396063  0.3759445649292882  1.0000
  I   I1        1.0  0.5172066003309218  0.3733353270387753  0.8775204717302437  1.0000
  I   I2        1.0  0.030740690271099824  0.14575604773117667  0.9009174762329017  1.0000
  O   O1        1.0  0.7634025981209588  0.7395615638378585  0.06415777412357437  1.0000
  O   O2        1.0  0.2747203758411261  0.7914391185839739  0.8834504188528256  1.0000
  O   O3        1.0  0.019368828877984346  0.32922613346476837  0.3937328659774715  1.0000
  O   O4        1.0  0.06418081463471143  0.7190197476778234  0.654883519623006  1.0000
  O   O5        1.0  0.9033207038031017  0.8024135618911683  0.3913336681249597  1.0000
  O   O6        1.0  0.4059184330286219  0.1371818861726859  0.5616411444113606  1.0000
  O   O7        1.0  0.11806322971361337  0.6281003721908812  0.10990181917746912  1.0000
  O   O8        1.0  0.7810771052901992  0.25292678879200486  0.6703615314133616  1.0000
  O   O9        1.0  0.33502132683054514  0.5789291319096449  0.5748088465309639  1.0000
  O   O10       1.0  0.42778678812895954  0.12249663257776446  0.2513212961519255  1.0000
data_image171
_chemical_formula_structural       Re2C10I2O10
_chemical_formula_sum              "Re2 C10 I2 O10"
_cell_length_a       6.7806348447214
_cell_length_b       6.7806348447214
_cell_length_c       10.993743
_cell_angle_alpha    90.0
_cell_angle_beta     90.0
_cell_angle_gamma    110.32517840843863

_space_group_name_H-M_alt    "P 1"
_space_group_IT_number       1

loop_
  _space_group_symop_operation_xyz
  'x, y, z'

loop_
  _atom_site_type_symbol
  _atom_site_label
  _atom_site_symmetry_multiplicity
  _atom_site_fract_x
  _atom_site_fract_y
  _atom_site_fract_z
  _atom_site_occupancy
  Re  Re1       1.0  0.6669494809913981  0.8205246285250611  0.7436592983864436  1.0000
  Re  Re2       1.0  0.47327081634899704  0.5458632464218182  0.2653987416628351  1.0000
  C   C1        1.0  0.6719853584879527  0.6320154161229194  0.42284674587320875  1.0000
  C   C2        1.0  0.7195042520057504  0.00876801584218467  0.07587157968722802  1.0000
  C   C3        1.0  0.26397518332457787  0.5401620363781797  0.12968847223694988  1.0000
  C   C4        1.0  0.44420477129761893  0.26742940383503805  0.31386185136801564  1.0000
  C   C5        1.0  0.7952051488115508  0.12449014951779853  0.684242717540601  1.0000
  C   C6        1.0  0.8818150428774855  0.7053513130755611  0.7600769542322224  1.0000
  C   C7        1.0  0.41418575452588824  0.7575394097289304  0.8450580712260496  1.0000
  C   C8        1.0  0.4830939791389487  0.24143522917224436  0.6627438409571406  1.0000
  C   C9        1.0  0.46048479556312666  0.7009970480384583  0.6313469129423699  1.0000
  C   C10       1.0  0.24207414788450077  0.5125122411176704  0.3506270356915451  1.0000
  I   I1        1.0  0.5345323330458138  0.3605919719673005  0.8979801254194951  1.0000
  I   I2        1.0  0.010668347077564366  0.10189896943240995  0.8813911068255527  1.0000
  O   O1        1.0  0.7051869270469947  0.9176390888915347  0.16923507584402842  1.0000
  O   O2        1.0  0.28956110737034546  0.7826682528316415  0.9092457077037639  1.0000
  O   O3        1.0  0.08275912552097128  0.48026770432717125  0.39253569198610866  1.0000
  O   O4        1.0  0.017040612224995377  0.6424213309782034  0.7493026975249566  1.0000
  O   O5        1.0  0.8074932556313874  0.7750959202698333  0.4691081893530719  1.0000
  O   O6        1.0  0.3518514319909751  0.09954457770540825  0.6212353252487848  1.0000
  O   O7        1.0  0.08337555419569379  0.5422811169311711  0.10535998433531903  1.0000
  O   O8        1.0  0.8545051835232269  0.27498087537966454  0.622510684557346  1.0000
  O   O9        1.0  0.33080381223390815  0.6937911023071879  0.5561979299676729  1.0000
  O   O10       1.0  0.4868471655521994  0.13918358285626925  0.35447204639310614  1.0000
data_image172
_chemical_formula_structural       Re2C10I2O10
_chemical_formula_sum              "Re2 C10 I2 O10"
_cell_length_a       6.7806348447214
_cell_length_b       6.7806348447214
_cell_length_c       10.993743
_cell_angle_alpha    90.0
_cell_angle_beta     90.0
_cell_angle_gamma    110.32517840843863

_space_group_name_H-M_alt    "P 1"
_space_group_IT_number       1

loop_
  _space_group_symop_operation_xyz
  'x, y, z'

loop_
  _atom_site_type_symbol
  _atom_site_label
  _atom_site_symmetry_multiplicity
  _atom_site_fract_x
  _atom_site_fract_y
  _atom_site_fract_z
  _atom_site_occupancy
  Re  Re1       1.0  0.6719109602828066  0.8954410555160809  0.7356094960777864  1.0000
  Re  Re2       1.0  0.40477460445821856  0.4428757964564295  0.24714037431056612  1.0000
  C   C1        1.0  0.5909262877856568  0.6503201374588103  0.37299439718254873  1.0000
  C   C2        1.0  0.6642813147715274  0.1885280039568196  0.10150132820459268  1.0000
  C   C3        1.0  0.19215525463341213  0.5449744121851957  0.16283297596524168  1.0000
  C   C4        1.0  0.46011305642766864  0.2137837064438237  0.3399614472065445  1.0000
  C   C5        1.0  0.863202684728692  0.1219053411684344  0.6377171555574577  1.0000
  C   C6        1.0  0.8327807974992313  0.6852176817482583  0.7464384130024099  1.0000
  C   C7        1.0  0.46948478827128115  0.7618666023774667  0.8792638122352612  1.0000
  C   C8        1.0  0.32843308411565164  0.14232612166835867  0.7160369509655395  1.0000
  C   C9        1.0  0.49319663698354305  0.8287747484544404  0.5972850548238593  1.0000
  C   C10       1.0  0.12085108011313124  0.37099442764408597  0.335740262692977  1.0000
  I   I1        1.0  0.5988875532576632  0.3956318416394634  0.9402418757980945  1.0000
  I   I2        1.0  0.056156780014741114  0.07475844532289311  0.8820990806135065  1.0000
  O   O1        1.0  0.7301044669171284  0.0564489001525045  0.10522892487971824  1.0000
  O   O2        1.0  0.41916068512820637  0.8176180624349394  0.9661937639669155  1.0000
  O   O3        1.0  0.9563916508976196  0.3135822097202645  0.3676761897262879  1.0000
  O   O4        1.0  0.9878893031512358  0.6472624334338778  0.7645026808582663  1.0000
  O   O5        1.0  0.7458588153746362  0.7934401363601375  0.39567835836788356  1.0000
  O   O6        1.0  0.38994922000955645  0.3087472164905236  0.6666467097517826  1.0000
  O   O7        1.0  0.08008406998692708  0.647408726923148  0.15402752349521223  1.0000
  O   O8        1.0  0.024032035702665766  0.2195784149085274  0.5801370099223071  1.0000
  O   O9        1.0  0.37525900304250276  0.7411651720078772  0.5265185265360239  1.0000
  O   O10       1.0  0.43281085658294083  0.05399957172834672  0.37940086066192125  1.0000
data_image173
_chemical_formula_structural       Re2C10I2O10
_chemical_formula_sum              "Re2 C10 I2 O10"
_cell_length_a       6.7806348447214
_cell_length_b       6.7806348447214
_cell_length_c       10.993743
_cell_angle_alpha    90.0
_cell_angle_beta     90.0
_cell_angle_gamma    110.32517840843863

_space_group_name_H-M_alt    "P 1"
_space_group_IT_number       1

loop_
  _space_group_symop_operation_xyz
  'x, y, z'

loop_
  _atom_site_type_symbol
  _atom_site_label
  _atom_site_symmetry_multiplicity
  _atom_site_fract_x
  _atom_site_fract_y
  _atom_site_fract_z
  _atom_site_occupancy
  Re  Re1       1.0  0.7489735909422399  0.9341388363654429  0.7487716969267004  1.0000
  Re  Re2       1.0  0.34643905449997103  0.4228308147915598  0.23410606880641321  1.0000
  C   C1        1.0  0.5505996804705614  0.6161452482326999  0.32677353139663473  1.0000
  C   C2        1.0  0.6658912691160049  0.09000741043742405  0.9864794568689949  1.0000
  C   C3        1.0  0.15206565773638955  0.5828583426188944  0.22394701701608644  1.0000
  C   C4        1.0  0.3726794625213061  0.15635908612511448  0.28667965207167695  1.0000
  C   C5        1.0  0.8685528439673811  0.11322914875383458  0.614526056699673  1.0000
  C   C6        1.0  0.8524145871632908  0.7043207188434173  0.7025359252410003  1.0000
  C   C7        1.0  0.5210892361832484  0.8519506842569446  0.9066433499133847  1.0000
  C   C8        1.0  0.45867212752282155  0.16096609835050923  0.6766633335432345  1.0000
  C   C9        1.0  0.5424963834741008  0.7111229836503897  0.655020655818773  1.0000
  C   C10       1.0  0.07452214179324268  0.30179403632273827  0.31272660830239074  1.0000
  I   I1        1.0  0.5747517799402052  0.39992530646290075  0.011256221328437066  1.0000
  I   I2        1.0  0.05212281229901872  0.13563210708617734  0.8714043327654053  1.0000
  O   O1        1.0  0.7404101868592659  0.046368364872140584  0.07731140197650599  1.0000
  O   O2        1.0  0.3431881983457874  0.7563487136579057  0.9201861756513967  1.0000
  O   O3        1.0  0.8975309146149348  0.23626113646453106  0.2876162487721276  1.0000
  O   O4        1.0  0.9267723744567227  0.573835739470292  0.6555718315358623  1.0000
  O   O5        1.0  0.7060439173722223  0.7402965061061559  0.32573796205427624  1.0000
  O   O6        1.0  0.548388414366051  0.22426172015397716  0.5919301607804296  1.0000
  O   O7        1.0  0.13208215499720283  0.7405380805978614  0.2196416832605831  1.0000
  O   O8        1.0  0.0028665950015609454  0.15175978056019307  0.5400492780458489  1.0000
  O   O9        1.0  0.41148232320154815  0.5514593462983363  0.6242378475076307  1.0000
  O   O10       1.0  0.40852478516419244  0.02208899129215258  0.33295094445620316  1.0000
data_image174
_chemical_formula_structural       Re2C10I2O10
_chemical_formula_sum              "Re2 C10 I2 O10"
_cell_length_a       6.7806348447214
_cell_length_b       6.7806348447214
_cell_length_c       10.993743
_cell_angle_alpha    90.0
_cell_angle_beta     90.0
_cell_angle_gamma    110.32517840843863

_space_group_name_H-M_alt    "P 1"
_space_group_IT_number       1

loop_
  _space_group_symop_operation_xyz
  'x, y, z'

loop_
  _atom_site_type_symbol
  _atom_site_label
  _atom_site_symmetry_multiplicity
  _atom_site_fract_x
  _atom_site_fract_y
  _atom_site_fract_z
  _atom_site_occupancy
  Re  Re1       1.0  0.7654192357037953  0.9219731043314556  0.7212293918137725  1.0000
  Re  Re2       1.0  0.2576675849106604  0.40220173147953586  0.22899543108482057  1.0000
  C   C1        1.0  0.4950122369187616  0.5863003888009142  0.31122879685428034  1.0000
  C   C2        1.0  0.7447699884548511  0.9871684742020908  0.017863387481856563  1.0000
  C   C3        1.0  0.12972108035390834  0.6375728897212859  0.20586343253780776  1.0000
  C   C4        1.0  0.3574051820859775  0.14692455008397892  0.32260203234954377  1.0000
  C   C5        1.0  0.9644607671572054  0.12772360187841922  0.6092850635653851  1.0000
  C   C6        1.0  0.9437201008231878  0.7477474079398333  0.6529230985706868  1.0000
  C   C7        1.0  0.530777956752928  0.8612476531840636  0.8768994326786297  1.0000
  C   C8        1.0  0.6499736624690399  0.19065555344727292  0.7012584010114529  1.0000
  C   C9        1.0  0.5851272821156643  0.7164531623373602  0.6125128324244296  1.0000
  C   C10       1.0  0.9546290352595609  0.2758601598972579  0.2812019222194626  1.0000
  I   I1        1.0  0.5070956707295092  0.34603072971808163  0.059669912521565394  1.0000
  I   I2        1.0  0.1762851920708821  0.19234517208315016  0.8665298964595248  1.0000
  O   O1        1.0  0.697080728964079  0.8739044662374901  0.100103076009602  1.0000
  O   O2        1.0  0.3591717169582904  0.8427900965716248  0.8841624679456224  1.0000
  O   O3        1.0  0.7707589379106613  0.21921729296842907  0.2874295389477044  1.0000
  O   O4        1.0  0.06486735589932661  0.6559584420388974  0.6268312943404689  1.0000
  O   O5        1.0  0.6445710039382135  0.6617216339035235  0.3562856824958377  1.0000
  O   O6        1.0  0.6206231144745635  0.34282734739455956  0.6747345858055157  1.0000
  O   O7        1.0  0.14660604626931767  0.8109438375883298  0.21785667742471423  1.0000
  O   O8        1.0  0.11412452889415459  0.24739616235691864  0.5664129742008485  1.0000
  O   O9        1.0  0.43850082434966875  0.6088967071589424  0.5550059318753072  1.0000
  O   O10       1.0  0.4458463260205807  0.146644856539745  0.414772531812091  1.0000
data_image175
_chemical_formula_structural       Re2C10I2O10
_chemical_formula_sum              "Re2 C10 I2 O10"
_cell_length_a       6.7806348447214
_cell_length_b       6.7806348447214
_cell_length_c       10.993743
_cell_angle_alpha    90.0
_cell_angle_beta     90.0
_cell_angle_gamma    110.32517840843863

_space_group_name_H-M_alt    "P 1"
_space_group_IT_number       1

loop_
  _space_group_symop_operation_xyz
  'x, y, z'

loop_
  _atom_site_type_symbol
  _atom_site_label
  _atom_site_symmetry_multiplicity
  _atom_site_fract_x
  _atom_site_fract_y
  _atom_site_fract_z
  _atom_site_occupancy
  Re  Re1       1.0  0.7798096795561633  0.9119889459965583  0.6737789749010501  1.0000
  Re  Re2       1.0  0.1671055285396834  0.37658381572509564  0.24509606452602456  1.0000
  C   C1        1.0  0.4322655320817061  0.5391338449566119  0.3231866015615019  1.0000
  C   C2        1.0  0.8561710249556631  0.9605018020737328  0.06542233058309099  1.0000
  C   C3        1.0  0.21107321636502263  0.6463485110591567  0.12623468357599585  1.0000
  C   C4        1.0  0.22003387908461502  0.14339737518302015  0.32196020107614776  1.0000
  C   C5        1.0  0.07447113505799363  0.08058918687247542  0.606135220607119  1.0000
  C   C6        1.0  0.026771703797268134  0.8323144303012893  0.7099003183046186  1.0000
  C   C7        1.0  0.6271628005799421  0.8031865028738635  0.8269469126970526  1.0000
  C   C8        1.0  0.7673920013159439  0.2108557105911082  0.704629709561759  1.0000
  C   C9        1.0  0.5572290893591229  0.679658068565566  0.6141320841472255  1.0000
  C   C10       1.0  0.8895243905495269  0.2771519398961324  0.3140627110740083  1.0000
  I   I1        1.0  0.48277542342951385  0.4008553551394449  0.08437706088965014  1.0000
  I   I2        1.0  0.2384733554313334  0.23811743062884694  0.8583916299014316  1.0000
  O   O1        1.0  0.7680669503230912  0.9255313673281421  0.16160131885474982  1.0000
  O   O2        1.0  0.5041910566117327  0.7459340787799346  0.9012252699932629  1.0000
  O   O3        1.0  0.7265151367582101  0.16489707917568142  0.353533677294561  1.0000
  O   O4        1.0  0.16125795756913397  0.7686216404870437  0.740661939170564  1.0000
  O   O5        1.0  0.5970376743618417  0.5758258277750885  0.36762002057694987  1.0000
  O   O6        1.0  0.8562799898843863  0.38659094587647935  0.7177573429519999  1.0000
  O   O7        1.0  0.2034661389363881  0.787680590143653  0.06920453750969914  1.0000
  O   O8        1.0  0.25144303877794716  0.18664438289752752  0.6165753984922719  1.0000
  O   O9        1.0  0.38646968666154013  0.571522408497165  0.5993840837455433  1.0000
  O   O10       1.0  0.23410804488325743  0.004575877433034908  0.3790741308268478  1.0000
data_image176
_chemical_formula_structural       Re2C10I2O10
_chemical_formula_sum              "Re2 C10 I2 O10"
_cell_length_a       6.7806348447214
_cell_length_b       6.7806348447214
_cell_length_c       10.993743
_cell_angle_alpha    90.0
_cell_angle_beta     90.0
_cell_angle_gamma    110.32517840843863

_space_group_name_H-M_alt    "P 1"
_space_group_IT_number       1

loop_
  _space_group_symop_operation_xyz
  'x, y, z'

loop_
  _atom_site_type_symbol
  _atom_site_label
  _atom_site_symmetry_multiplicity
  _atom_site_fract_x
  _atom_site_fract_y
  _atom_site_fract_z
  _atom_site_occupancy
  Re  Re1       1.0  0.8597599096738595  0.9119605598321812  0.6491234899707721  1.0000
  Re  Re2       1.0  0.11060738975854238  0.36402473615188136  0.26698384265969893  1.0000
  C   C1        1.0  0.3551571958842441  0.5986202840419397  0.31922816730992837  1.0000
  C   C2        1.0  0.9315772057821253  0.21233750254313444  0.11418300470231224  1.0000
  C   C3        1.0  0.10729411315424542  0.5755517994882611  0.1465053814511171  1.0000
  C   C4        1.0  0.12716174864185825  0.07422587342172186  0.2882609206877191  1.0000
  C   C5        1.0  0.1412167939253508  0.0035625146459159263  0.5568711391233391  1.0000
  C   C6        1.0  0.038693100695039846  0.8236226583432362  0.7775575459660486  1.0000
  C   C7        1.0  0.6576777155720839  0.910870411480119  0.7912314818435642  1.0000
  C   C8        1.0  0.9156588819776903  0.22606760450876262  0.6857956888620855  1.0000
  C   C9        1.0  0.5595224147617429  0.7110829147614006  0.6139246084381347  1.0000
  C   C10       1.0  0.8580134507357912  0.34216186572262464  0.3566362999137395  1.0000
  I   I1        1.0  0.48244802993298885  0.43406450961884935  0.10074867718875624  1.0000
  I   I2        1.0  0.1927183622983557  0.14499507622321506  0.866010905261838  1.0000
  O   O1        1.0  0.9792509801920222  0.08740921739727088  0.05655573873953168  1.0000
  O   O2        1.0  0.5776240571149733  0.9109967446375408  0.8870549116123285  1.0000
  O   O3        1.0  0.6813073692745834  0.32479928371974554  0.38999579316792826  1.0000
  O   O4        1.0  0.1568582538484363  0.7561509216208341  0.8371788417310648  1.0000
  O   O5        1.0  0.5292640142741323  0.7257277266462425  0.34472844730086294  1.0000
  O   O6        1.0  0.9318293214304851  0.39324658799799384  0.7153813975343234  1.0000
  O   O7        1.0  0.11337463674020587  0.7026271002213762  0.07826129131587915  1.0000
  O   O8        1.0  0.31518358942421365  0.016005654456405487  0.5281047613693208  1.0000
  O   O9        1.0  0.37971531622240007  0.6824811357854986  0.6019132149476009  1.0000
  O   O10       1.0  0.1111174954291193  0.9116012210977121  0.26565534249542094  1.0000
data_image177
_chemical_formula_structural       Re2C10I2O10
_chemical_formula_sum              "Re2 C10 I2 O10"
_cell_length_a       6.7806348447214
_cell_length_b       6.7806348447214
_cell_length_c       10.993743
_cell_angle_alpha    90.0
_cell_angle_beta     90.0
_cell_angle_gamma    110.32517840843863

_space_group_name_H-M_alt    "P 1"
_space_group_IT_number       1

loop_
  _space_group_symop_operation_xyz
  'x, y, z'

loop_
  _atom_site_type_symbol
  _atom_site_label
  _atom_site_symmetry_multiplicity
  _atom_site_fract_x
  _atom_site_fract_y
  _atom_site_fract_z
  _atom_site_occupancy
  Re  Re1       1.0  0.883177506822587  0.886108545354523  0.6522204455164909  1.0000
  Re  Re2       1.0  0.11354092805144592  0.37101210200297957  0.25369499359156894  1.0000
  C   C1        1.0  0.1790494852322187  0.581677054775577  0.39152477808790853  1.0000
  C   C2        1.0  0.8889075326099946  0.15331400665921457  0.16193964375441228  1.0000
  C   C3        1.0  0.9961030118737835  0.5498072664065928  0.1424876974651053  1.0000
  C   C4        1.0  0.9754779198193593  0.03629784007862472  0.3733558667092051  1.0000
  C   C5        1.0  0.173093637340906  0.06935894606918008  0.6126144988515214  1.0000
  C   C6        1.0  0.06521923075000141  0.7563312097282711  0.7515723029529783  1.0000
  C   C7        1.0  0.6421915159294063  0.9169055500717405  0.8013013594263418  1.0000
  C   C8        1.0  0.8562947092516685  0.1686094991303282  0.6812202641850104  1.0000
  C   C9        1.0  0.6602144466652882  0.6142562423772207  0.6784356725573233  1.0000
  C   C10       1.0  0.8563259267909895  0.3835689414758843  0.31460418542795426  1.0000
  I   I1        1.0  0.4884793255668656  0.46996882726271794  0.09198292013256193  1.0000
  I   I2        1.0  0.2601402120218226  0.18976294850423825  0.8362752691319991  1.0000
  O   O1        1.0  0.7918504139203248  0.014393370582491244  0.10541277846953268  1.0000
  O   O2        1.0  0.5683332276105375  0.9613249575311277  0.8858159344110341  1.0000
  O   O3        1.0  0.6879063640051661  0.38937234456341985  0.3469787150996405  1.0000
  O   O4        1.0  0.19319329298424487  0.6963179262079398  0.7740426962979214  1.0000
  O   O5        1.0  0.28803722143217014  0.6554784655252148  0.4803308597431261  1.0000
  O   O6        1.0  0.8053734084767579  0.32426778617005203  0.6834598235134627  1.0000
  O   O7        1.0  0.9742900738056712  0.6931823508108595  0.08546444507564488  1.0000
  O   O8        1.0  0.3285056740653616  0.15586648246763526  0.5581540737867344  1.0000
  O   O9        1.0  0.49548895471146964  0.4736202864136814  0.6779908793498555  1.0000
  O   O10       1.0  0.06008798543351823  0.9275964524858404  0.33575696516059494  1.0000
data_image178
_chemical_formula_structural       Re2C10I2O10
_chemical_formula_sum              "Re2 C10 I2 O10"
_cell_length_a       6.7806348447214
_cell_length_b       6.7806348447214
_cell_length_c       10.993743
_cell_angle_alpha    90.0
_cell_angle_beta     90.0
_cell_angle_gamma    110.32517840843863

_space_group_name_H-M_alt    "P 1"
_space_group_IT_number       1

loop_
  _space_group_symop_operation_xyz
  'x, y, z'

loop_
  _atom_site_type_symbol
  _atom_site_label
  _atom_site_symmetry_multiplicity
  _atom_site_fract_x
  _atom_site_fract_y
  _atom_site_fract_z
  _atom_site_occupancy
  Re  Re1       1.0  0.8819115419533041  0.85936225093582  0.6571487052639146  1.0000
  Re  Re2       1.0  0.06524918801566144  0.3299756703790769  0.1949290666247941  1.0000
  C   C1        1.0  0.19415709396351938  0.5071122492571078  0.377305469374627  1.0000
  C   C2        1.0  0.7777852214989125  0.17605833119714914  0.17505801499529916  1.0000
  C   C3        1.0  0.10961488457750306  0.6076437944881399  0.14247593271452502  1.0000
  C   C4        1.0  0.050808947219625256  0.06453916638417603  0.3217593983900374  1.0000
  C   C5        1.0  0.13178183925511133  0.9910594422673724  0.5385473394406239  1.0000
  C   C6        1.0  0.10595160091061528  0.7789334845905236  0.7185367609406635  1.0000
  C   C7        1.0  0.8401289905009808  0.8381967928989439  0.852478323499395  1.0000
  C   C8        1.0  0.8239052712383743  0.11343527696163536  0.6441279625237653  1.0000
  C   C9        1.0  0.6778812520251267  0.5709558267781624  0.6841600778596117  1.0000
  C   C10       1.0  0.8646117801623096  0.37598517121508657  0.29505702531760486  1.0000
  I   I1        1.0  0.4744374231504286  0.552212517424879  0.13170832140424138  1.0000
  I   I2        1.0  0.2812023994497368  0.25328717775725773  0.8864106005237551  1.0000
  O   O1        1.0  0.6189784829061212  0.04022298944412611  0.18634826856186892  1.0000
  O   O2        1.0  0.8485019334858364  0.795237408001239  0.9523818334781209  1.0000
  O   O3        1.0  0.726867098476629  0.3638584735829351  0.3748803563021838  1.0000
  O   O4        1.0  0.28296236566091815  0.8346126966775929  0.7366587605935336  1.0000
  O   O5        1.0  0.28244197018928774  0.5729134375351259  0.4637436421781121  1.0000
  O   O6        1.0  0.8424216495338681  0.28531738261103534  0.6194099455152555  1.0000
  O   O7        1.0  0.10917501274422027  0.7613594562593552  0.09181759893719366  1.0000
  O   O8        1.0  0.2588489444312545  0.16061635968642596  0.5050862971466142  1.0000
  O   O9        1.0  0.5615710366601441  0.40275804034935575  0.703600838078201  1.0000
  O   O10       1.0  0.9861142078717997  0.8786516612483318  0.33108248996018413  1.0000
data_image179
_chemical_formula_structural       Re2C10I2O10
_chemical_formula_sum              "Re2 C10 I2 O10"
_cell_length_a       6.7806348447214
_cell_length_b       6.7806348447214
_cell_length_c       10.993743
_cell_angle_alpha    90.0
_cell_angle_beta     90.0
_cell_angle_gamma    110.32517840843863

_space_group_name_H-M_alt    "P 1"
_space_group_IT_number       1

loop_
  _space_group_symop_operation_xyz
  'x, y, z'

loop_
  _atom_site_type_symbol
  _atom_site_label
  _atom_site_symmetry_multiplicity
  _atom_site_fract_x
  _atom_site_fract_y
  _atom_site_fract_z
  _atom_site_occupancy
  Re  Re1       1.0  0.8460731012109647  0.8329710060661488  0.6409085285215991  1.0000
  Re  Re2       1.0  0.05925223299738952  0.3249176481634434  0.19734684233651104  1.0000
  C   C1        1.0  0.2760853458093896  0.46289984924851724  0.31378477716145  1.0000
  C   C2        1.0  0.7503950829969543  0.18837691707274656  0.12906721409640332  1.0000
  C   C3        1.0  0.1564353169169546  0.5964217217781614  0.11878439448530906  1.0000
  C   C4        1.0  0.03618721883249909  0.05006360157952768  0.27155831932840874  1.0000
  C   C5        1.0  0.13132268179492446  0.03112840734965432  0.5958666715640833  1.0000
  C   C6        1.0  0.08492002353553217  0.7351871429602175  0.6649114631899432  1.0000
  C   C7        1.0  0.8159034241098109  0.7750718112384118  0.8338325574116253  1.0000
  C   C8        1.0  0.8816747608364375  0.14480680635150156  0.6411370741362578  1.0000
  C   C9        1.0  0.5652437218588462  0.6385090337180906  0.6367254168136088  1.0000
  C   C10       1.0  0.9422862112191605  0.4454135680529845  0.32771626561592365  1.0000
  I   I1        1.0  0.5320066549427709  0.5639763598478076  0.1586949592574729  1.0000
  I   I2        1.0  0.2390145143780915  0.2798075559732507  0.909650381931784  1.0000
  O   O1        1.0  0.5719371861496384  0.10194364230644859  0.13581094734478483  1.0000
  O   O2        1.0  0.8718084201749634  0.7517239737565835  0.929577991967565  1.0000
  O   O3        1.0  0.8840025778455751  0.46415767070390945  0.4330024894318092  1.0000
  O   O4        1.0  0.22658082142943767  0.7203511821061833  0.7181984507228366  1.0000
  O   O5        1.0  0.4123277810534948  0.48031318826704594  0.3864864827074107  1.0000
  O   O6        1.0  0.890635019801957  0.314529398987879  0.6619522183436845  1.0000
  O   O7        1.0  0.20525606980376643  0.7761000183824088  0.10319868120349777  1.0000
  O   O8        1.0  0.3231743095262054  0.1113117470476855  0.5701572900255849  1.0000
  O   O9        1.0  0.4164953584463853  0.5072255571258291  0.634370560817506  1.0000
  O   O10       1.0  0.022886404774172364  0.8869004605078693  0.31030686937055413  1.0000
data_image180
_chemical_formula_structural       Re2C10I2O10
_chemical_formula_sum              "Re2 C10 I2 O10"
_cell_length_a       6.7806348447214
_cell_length_b       6.7806348447214
_cell_length_c       10.993743
_cell_angle_alpha    90.0
_cell_angle_beta     90.0
_cell_angle_gamma    110.32517840843863

_space_group_name_H-M_alt    "P 1"
_space_group_IT_number       1

loop_
  _space_group_symop_operation_xyz
  'x, y, z'

loop_
  _atom_site_type_symbol
  _atom_site_label
  _atom_site_symmetry_multiplicity
  _atom_site_fract_x
  _atom_site_fract_y
  _atom_site_fract_z
  _atom_site_occupancy
  Re  Re1       1.0  0.8509555260088221  0.8287803423918435  0.6358630162159514  1.0000
  Re  Re2       1.0  0.07727179444612532  0.3447809213695713  0.20689035286400342  1.0000
  C   C1        1.0  0.305421490003878  0.3338631103546259  0.3325343981144111  1.0000
  C   C2        1.0  0.7899050187720905  0.18835582451870367  0.13928921244650194  1.0000
  C   C3        1.0  0.10047771366478303  0.56115211031653  0.07516998263279358  1.0000
  C   C4        1.0  0.06045896638654613  0.0458061897165434  0.2100432432790923  1.0000
  C   C5        1.0  0.15844655172588817  0.03163774757319643  0.5815367427753899  1.0000
  C   C6        1.0  0.032861370657277324  0.6378907895860949  0.6773317379956297  1.0000
  C   C7        1.0  0.7959730653980892  0.7991912661154763  0.7928267917696504  1.0000
  C   C8        1.0  0.7873105073928137  0.0838305943593265  0.7087614458122662  1.0000
  C   C9        1.0  0.560555256207435  0.5671266311290524  0.6515072774155899  1.0000
  C   C10       1.0  0.016185928926319617  0.4540078822709286  0.37987374502117816  1.0000
  I   I1        1.0  0.5334511712123584  0.6011934744588826  0.12435453470422342  1.0000
  I   I2        1.0  0.25359648370865306  0.34458465817737405  0.9355633228356934  1.0000
  O   O1        1.0  0.6321704556490635  0.07209296282941241  0.10425778937960883  1.0000
  O   O2        1.0  0.7186249753868221  0.7632705235572748  0.8882758980321496  1.0000
  O   O3        1.0  0.08141034354007884  0.4464452036755677  0.4762835713761337  1.0000
  O   O4        1.0  0.03251429729898349  0.5307502779935185  0.7601580164771969  1.0000
  O   O5        1.0  0.4325887819620878  0.33830325033312336  0.40507051766315966  1.0000
  O   O6        1.0  0.6772741368976691  0.1633352620379731  0.7463839512894929  1.0000
  O   O7        1.0  0.09267490122296816  0.6966439461630568  0.010959281121902243  1.0000
  O   O8        1.0  0.34711373518375455  0.09125104311514459  0.5832422533819827  1.0000
  O   O9        1.0  0.4135693781809696  0.4387904799662918  0.6877769084797104  1.0000
  O   O10       1.0  0.03083006603520322  0.8571203985301257  0.22655024506823004  1.0000
data_image181
_chemical_formula_structural       Re2C10I2O10
_chemical_formula_sum              "Re2 C10 I2 O10"
_cell_length_a       6.7806348447214
_cell_length_b       6.7806348447214
_cell_length_c       10.993743
_cell_angle_alpha    90.0
_cell_angle_beta     90.0
_cell_angle_gamma    110.32517840843863

_space_group_name_H-M_alt    "P 1"
_space_group_IT_number       1

loop_
  _space_group_symop_operation_xyz
  'x, y, z'

loop_
  _atom_site_type_symbol
  _atom_site_label
  _atom_site_symmetry_multiplicity
  _atom_site_fract_x
  _atom_site_fract_y
  _atom_site_fract_z
  _atom_site_occupancy
  Re  Re1       1.0  0.8487243554792081  0.8029630096926486  0.6398301910958665  1.0000
  Re  Re2       1.0  0.14630077664389762  0.3620154613720777  0.21448138599448607  1.0000
  C   C1        1.0  0.3897845987974975  0.3724045389300763  0.32664795359546184  1.0000
  C   C2        1.0  0.8291149227646543  0.20527310539363158  0.17485735919089063  1.0000
  C   C3        1.0  0.0222881158634145  0.5400248722681282  0.11258675229868408  1.0000
  C   C4        1.0  0.09031518283198359  0.06143449101885149  0.23303261207582598  1.0000
  C   C5        1.0  0.11146771525369337  0.9724492471467163  0.570894204161475  1.0000
  C   C6        1.0  0.021834124095350724  0.6775513270410918  0.7151893834120049  1.0000
  C   C7        1.0  0.8702869425153423  0.9645710578904866  0.8199670354391646  1.0000
  C   C8        1.0  0.77142386185189  0.08289908697766046  0.6639309563155461  1.0000
  C   C9        1.0  0.5579261488067868  0.5525497447706866  0.6553778823713581  1.0000
  C   C10       1.0  0.9676204874818874  0.39258275076192284  0.3577382797954201  1.0000
  I   I1        1.0  0.4972614171162456  0.6155564892329758  0.09920653129042534  1.0000
  I   I2        1.0  0.2022016957601429  0.2969693493169234  0.9513154990966898  1.0000
  O   O1        1.0  0.6696503632901556  0.17914980187474203  0.14815439157051147  1.0000
  O   O2        1.0  0.824958460135838  0.010985764415444521  0.9114581673215043  1.0000
  O   O3        1.0  0.9061952159883964  0.36698429601743143  0.45853810884788465  1.0000
  O   O4        1.0  0.06201128956731773  0.5569046479293284  0.7741805251654978  1.0000
  O   O5        1.0  0.5603004706195593  0.37403410013536265  0.34042759023605623  1.0000
  O   O6        1.0  0.6833484200385183  0.1966068835623247  0.6622200679271301  1.0000
  O   O7        1.0  0.9202207185524536  0.6063726803905496  0.04668687800725947  1.0000
  O   O8        1.0  0.28323602602354647  0.039029562205576  0.5280106990246505  1.0000
  O   O9        1.0  0.3896566385207915  0.45937383649509567  0.6731474767521856  1.0000
  O   O10       1.0  0.05701038841930739  0.8859062307342465  0.22156114088873505  1.0000
data_image182
_chemical_formula_structural       Re2C10I2O10
_chemical_formula_sum              "Re2 C10 I2 O10"
_cell_length_a       6.7806348447214
_cell_length_b       6.7806348447214
_cell_length_c       10.993743
_cell_angle_alpha    90.0
_cell_angle_beta     90.0
_cell_angle_gamma    110.32517840843863

_space_group_name_H-M_alt    "P 1"
_space_group_IT_number       1

loop_
  _space_group_symop_operation_xyz
  'x, y, z'

loop_
  _atom_site_type_symbol
  _atom_site_label
  _atom_site_symmetry_multiplicity
  _atom_site_fract_x
  _atom_site_fract_y
  _atom_site_fract_z
  _atom_site_occupancy
  Re  Re1       1.0  0.817646644516728  0.8118094982860271  0.6490504198694101  1.0000
  Re  Re2       1.0  0.17134562869561695  0.3818866138945593  0.21524605333507835  1.0000
  C   C1        1.0  0.4335314465926337  0.491882647988106  0.3415446404751655  1.0000
  C   C2        1.0  0.886048426778872  0.16038812633607324  0.23747475487629943  1.0000
  C   C3        1.0  0.05645843992838266  0.5360634564219265  0.09966029957839624  1.0000
  C   C4        1.0  0.2170717145426292  0.09384365733846171  0.2464073276544302  1.0000
  C   C5        1.0  0.08883653847715278  0.9934929101304832  0.5722951047777279  1.0000
  C   C6        1.0  0.012316072070914851  0.6753286279800579  0.7044479446303972  1.0000
  C   C7        1.0  0.7573535783535088  0.870491099591496  0.8124706725759209  1.0000
  C   C8        1.0  0.7108456994790593  0.01744357689309961  0.554883674254166  1.0000
  C   C9        1.0  0.5775930831257546  0.5592068336807836  0.6228470576694611  1.0000
  C   C10       1.0  0.05326228312705613  0.49062161350181466  0.3459558528127025  1.0000
  I   I1        1.0  0.5183427845775408  0.616487486806624  0.09167597259718008  1.0000
  I   I2        1.0  0.1541557267705309  0.2233946130220943  0.9832182354533734  1.0000
  O   O1        1.0  0.6909409805406513  0.09656486068942888  0.21653536617608848  1.0000
  O   O2        1.0  0.650322378066917  0.8999981464891659  0.8956133127556272  1.0000
  O   O3        1.0  0.004027928186459455  0.5151266632590183  0.44694540731457627  1.0000
  O   O4        1.0  0.11413511432413642  0.5712513160779139  0.7253268848274589  1.0000
  O   O5        1.0  0.5743341693906515  0.6499562322112971  0.363540350961717  1.0000
  O   O6        1.0  0.6390470165026031  0.1266638385617216  0.5178637106507791  1.0000
  O   O7        1.0  0.9565002658728844  0.5818165531744475  0.027375684835203667  1.0000
  O   O8        1.0  0.2288130080442463  0.03392269525429259  0.5001095717256328  1.0000
  O   O9        1.0  0.4008674858354306  0.4650792426094426  0.5980141708095138  1.0000
  O   O10       1.0  0.24279801649928823  0.9332179952679789  0.21943808172985882  1.0000
data_image183
_chemical_formula_structural       Re2C10I2O10
_chemical_formula_sum              "Re2 C10 I2 O10"
_cell_length_a       6.7806348447214
_cell_length_b       6.7806348447214
_cell_length_c       10.993743
_cell_angle_alpha    90.0
_cell_angle_beta     90.0
_cell_angle_gamma    110.32517840843863

_space_group_name_H-M_alt    "P 1"
_space_group_IT_number       1

loop_
  _space_group_symop_operation_xyz
  'x, y, z'

loop_
  _atom_site_type_symbol
  _atom_site_label
  _atom_site_symmetry_multiplicity
  _atom_site_fract_x
  _atom_site_fract_y
  _atom_site_fract_z
  _atom_site_occupancy
  Re  Re1       1.0  0.8089233726864813  0.8103262911111945  0.6460202444167741  1.0000
  Re  Re2       1.0  0.15363200596342738  0.4029421740318872  0.2343360336703438  1.0000
  C   C1        1.0  0.44220468089170106  0.5010029108038059  0.34522321602986805  1.0000
  C   C2        1.0  0.8934433093066596  0.15822157587866412  0.2282793596442394  1.0000
  C   C3        1.0  0.14176754328976313  0.66171054858814  0.16361978426741594  1.0000
  C   C4        1.0  0.2664968249525138  0.10052859415463217  0.22810424394098078  1.0000
  C   C5        1.0  0.018961978427455062  0.9829832938404826  0.5139979358414253  1.0000
  C   C6        1.0  0.014149388821737706  0.7125243776450589  0.7644195636200551  1.0000
  C   C7        1.0  0.6137798303928683  0.8928708026047838  0.7468112027998193  1.0000
  C   C8        1.0  0.8011710314200484  0.025838498324775472  0.5224542979947037  1.0000
  C   C9        1.0  0.6301151621647684  0.551661713526307  0.6011816131695882  1.0000
  C   C10       1.0  0.07921402600490841  0.5377318892390197  0.35989040642008013  1.0000
  I   I1        1.0  0.5485191761450395  0.5654691226926718  0.090102567732391  1.0000
  I   I2        1.0  0.09847418501536787  0.15750226689903635  0.9755114149105001  1.0000
  O   O1        1.0  0.7546731743720956  0.05129039626998435  0.16522756736921296  1.0000
  O   O2        1.0  0.5019164947420451  0.9679156814557259  0.7942099924945254  1.0000
  O   O3        1.0  0.0992978615657831  0.6420901159397423  0.45500786090084777  1.0000
  O   O4        1.0  0.1273733900673947  0.6573301336579728  0.8263571409977702  1.0000
  O   O5        1.0  0.5487839798972171  0.6749245518168339  0.3626408202945744  1.0000
  O   O6        1.0  0.7717680445933027  0.16689280287712238  0.4755641631049978  1.0000
  O   O7        1.0  0.05944860571739852  0.7261827753077056  0.0907357210154485  1.0000
  O   O8        1.0  0.17967896581279286  0.11399155155545765  0.4693230071209  1.0000
  O   O9        1.0  0.5118841572632269  0.3948772225847334  0.5542499580780086  1.0000
  O   O10       1.0  0.3721530978880192  0.010605158749890209  0.25334437269759275  1.0000
data_image184
_chemical_formula_structural       Re2C10I2O10
_chemical_formula_sum              "Re2 C10 I2 O10"
_cell_length_a       6.7806348447214
_cell_length_b       6.7806348447214
_cell_length_c       10.993743
_cell_angle_alpha    90.0
_cell_angle_beta     90.0
_cell_angle_gamma    110.32517840843863

_space_group_name_H-M_alt    "P 1"
_space_group_IT_number       1

loop_
  _space_group_symop_operation_xyz
  'x, y, z'

loop_
  _atom_site_type_symbol
  _atom_site_label
  _atom_site_symmetry_multiplicity
  _atom_site_fract_x
  _atom_site_fract_y
  _atom_site_fract_z
  _atom_site_occupancy
  Re  Re1       1.0  0.8672514392648212  0.8413713455037606  0.6713689185940329  1.0000
  Re  Re2       1.0  0.12980891275399362  0.3679619317611479  0.22292648380915  1.0000
  C   C1        1.0  0.4268928041461017  0.5571322031423886  0.2801178414185681  1.0000
  C   C2        1.0  0.8145667690837376  0.15844046428937608  0.2231030012748152  1.0000
  C   C3        1.0  0.15975837265471482  0.6307595857489592  0.1462950644579207  1.0000
  C   C4        1.0  0.3112203383781209  0.1971329426233665  0.2774451888226939  1.0000
  C   C5        1.0  0.09792430394684404  0.9116712642888165  0.5511131749865921  1.0000
  C   C6        1.0  0.9870669482500569  0.7077770445863429  0.8078064067700369  1.0000
  C   C7        1.0  0.5456327687813083  0.8016706599275976  0.7251886585502757  1.0000
  C   C8        1.0  0.829659033051775  0.0712553560580873  0.5814552086172783  1.0000
  C   C9        1.0  0.6629228436041434  0.6042284358898973  0.5967788325339148  1.0000
  C   C10       1.0  0.9781797693930274  0.4206855801612699  0.35226292966472755  1.0000
  I   I1        1.0  0.5626058872745252  0.5270583395582358  0.049755534004582325  1.0000
  I   I2        1.0  0.08069705319340836  0.21019954812638952  0.9896566558828341  1.0000
  O   O1        1.0  0.6959532508588485  0.10365472037067337  0.13262856017436353  1.0000
  O   O2        1.0  0.3802521358128126  0.8201040215124142  0.7285814897072488  1.0000
  O   O3        1.0  0.8987568388197243  0.5274974226695455  0.4087237354077079  1.0000
  O   O4        1.0  0.9622966001178973  0.5947438574308213  0.8834039471732614  1.0000
  O   O5        1.0  0.5250874215831256  0.7170470695253213  0.3300312860855415  1.0000
  O   O6        1.0  0.7573094846160581  0.1637883137723568  0.5175754114429953  1.0000
  O   O7        1.0  0.191934295058579  0.7885642728111948  0.09526559137713997  1.0000
  O   O8        1.0  0.20920730440954793  0.04491930488329969  0.4838332710739151  1.0000
  O   O9        1.0  0.5552624358463376  0.4640657505587919  0.5476828694686637  1.0000
  O   O10       1.0  0.4508530121122334  0.1487844464335388  0.3083162157776983  1.0000
data_image185
_chemical_formula_structural       Re2C10I2O10
_chemical_formula_sum              "Re2 C10 I2 O10"
_cell_length_a       6.7806348447214
_cell_length_b       6.7806348447214
_cell_length_c       10.993743
_cell_angle_alpha    90.0
_cell_angle_beta     90.0
_cell_angle_gamma    110.32517840843863

_space_group_name_H-M_alt    "P 1"
_space_group_IT_number       1

loop_
  _space_group_symop_operation_xyz
  'x, y, z'

loop_
  _atom_site_type_symbol
  _atom_site_label
  _atom_site_symmetry_multiplicity
  _atom_site_fract_x
  _atom_site_fract_y
  _atom_site_fract_z
  _atom_site_occupancy
  Re  Re1       1.0  0.8686712338060648  0.8394032403157314  0.6667950341635751  1.0000
  Re  Re2       1.0  0.1319916663591959  0.4001359763895423  0.22394423786514417  1.0000
  C   C1        1.0  0.41907220922964233  0.6518300245817794  0.26719095497232914  1.0000
  C   C2        1.0  0.8606579721743042  0.15228968219753028  0.18840562091772606  1.0000
  C   C3        1.0  0.23078823227945675  0.6759388764261586  0.13225628351369018  1.0000
  C   C4        1.0  0.3201895405821663  0.2843381476538726  0.3134723355482663  1.0000
  C   C5        1.0  0.1506365922829156  0.8618391554254909  0.5836408972631267  1.0000
  C   C6        1.0  0.9606639791556632  0.6919030668039784  0.800704319984316  1.0000
  C   C7        1.0  0.5881264625676228  0.7328663356552737  0.7875783379357842  1.0000
  C   C8        1.0  0.8141691774759156  0.06874631847766155  0.581828326721009  1.0000
  C   C9        1.0  0.6179944885518711  0.6249532465292492  0.5781461345021758  1.0000
  C   C10       1.0  0.9564182892094978  0.5195744708951615  0.3089232630807861  1.0000
  I   I1        1.0  0.5183147398190712  0.49612599101698673  0.029623917218827067  1.0000
  I   I2        1.0  0.07793822155960117  0.16163434441473346  0.9972144895944443  1.0000
  O   O1        1.0  0.6854068803324159  0.02614597684529319  0.15738328529207823  1.0000
  O   O2        1.0  0.4259333571619037  0.7394644831381157  0.8376925773668136  1.0000
  O   O3        1.0  0.9397814074890183  0.6830225698921462  0.3443130911616439  1.0000
  O   O4        1.0  0.9811150574308469  0.6221736518938775  0.888166656831434  1.0000
  O   O5        1.0  0.5545372459100396  0.7751145753756212  0.3189524426569367  1.0000
  O   O6        1.0  0.80489374676742  0.23637349550751408  0.5479135554829001  1.0000
  O   O7        1.0  0.25466690348026144  0.8510545749857495  0.10710193603945592  1.0000
  O   O8        1.0  0.30887076900637256  0.9050381932369269  0.5225724600137631  1.0000
  O   O9        1.0  0.48531116360357734  0.4772374788669684  0.5498202445498565  1.0000
  O   O10       1.0  0.4372354950280821  0.193739175939127  0.30715092980285846  1.0000
data_image186
_chemical_formula_structural       Re2C10I2O10
_chemical_formula_sum              "Re2 C10 I2 O10"
_cell_length_a       6.7806348447214
_cell_length_b       6.7806348447214
_cell_length_c       10.993743
_cell_angle_alpha    90.0
_cell_angle_beta     90.0
_cell_angle_gamma    110.32517840843863

_space_group_name_H-M_alt    "P 1"
_space_group_IT_number       1

loop_
  _space_group_symop_operation_xyz
  'x, y, z'

loop_
  _atom_site_type_symbol
  _atom_site_label
  _atom_site_symmetry_multiplicity
  _atom_site_fract_x
  _atom_site_fract_y
  _atom_site_fract_z
  _atom_site_occupancy
  Re  Re1       1.0  0.852884381581921  0.8373881228365324  0.6506284824507786  1.0000
  Re  Re2       1.0  0.15591879065049893  0.44621377623683584  0.21251226169167214  1.0000
  C   C1        1.0  0.3815407564829735  0.6014578166861211  0.35356025416243414  1.0000
  C   C2        1.0  0.9015058045275856  0.22486757060364435  0.2098629368868954  1.0000
  C   C3        1.0  0.2575083298419595  0.7755674890772197  0.16918315449437335  1.0000
  C   C4        1.0  0.2657162730492829  0.26220339609869814  0.2949490219668049  1.0000
  C   C5        1.0  0.10917667630989536  0.7717964733274923  0.5847876689589709  1.0000
  C   C6        1.0  0.9612719913224084  0.7208387984563998  0.7891411810683433  1.0000
  C   C7        1.0  0.5939810235945373  0.8025953637035332  0.7731225685598633  1.0000
  C   C8        1.0  0.9826705631416257  0.16218194593594815  0.606123585063201  1.0000
  C   C9        1.0  0.6145011057337626  0.5704204291467424  0.5953730898987419  1.0000
  C   C10       1.0  0.9853269770884047  0.6096729353992054  0.271661631660242  1.0000
  I   I1        1.0  0.47123603236127576  0.44291839686257745  0.03957903007021413  1.0000
  I   I2        1.0  0.06219115049539892  0.12239467833503703  0.9966087625504981  1.0000
  O   O1        1.0  0.7426863117099504  0.06276246735654442  0.2157585282262191  1.0000
  O   O2        1.0  0.45445662079827276  0.8598535637066507  0.8020386752039574  1.0000
  O   O3        1.0  0.862698473905115  0.6765273043037765  0.316650528486061  1.0000
  O   O4        1.0  0.04425520627804343  0.6363251970268672  0.8522468040753193  1.0000
  O   O5        1.0  0.5554035416815621  0.6790465273901141  0.38357999948063703  1.0000
  O   O6        1.0  0.03191333231286997  0.34801011825654227  0.577292721601505  1.0000
  O   O7        1.0  0.3366985040126855  0.9129695676265428  0.1016580201796407  1.0000
  O   O8        1.0  0.28409488305591024  0.7807193632434184  0.5938683548471132  1.0000
  O   O9        1.0  0.5068532940190192  0.4126512016372319  0.5789242124395751  1.0000
  O   O10       1.0  0.37609342648141286  0.17687685629909955  0.3259133612498202  1.0000
data_image187
_chemical_formula_structural       Re2C10I2O10
_chemical_formula_sum              "Re2 C10 I2 O10"
_cell_length_a       6.7806348447214
_cell_length_b       6.7806348447214
_cell_length_c       10.993743
_cell_angle_alpha    90.0
_cell_angle_beta     90.0
_cell_angle_gamma    110.32517840843863

_space_group_name_H-M_alt    "P 1"
_space_group_IT_number       1

loop_
  _space_group_symop_operation_xyz
  'x, y, z'

loop_
  _atom_site_type_symbol
  _atom_site_label
  _atom_site_symmetry_multiplicity
  _atom_site_fract_x
  _atom_site_fract_y
  _atom_site_fract_z
  _atom_site_occupancy
  Re  Re1       1.0  0.8490692492440047  0.8120655484148983  0.641888612776051  1.0000
  Re  Re2       1.0  0.1619922535179098  0.4818791769331688  0.21175421324702218  1.0000
  C   C1        1.0  0.3197328544288638  0.6371172894645787  0.36359798175969327  1.0000
  C   C2        1.0  0.9689954341229218  0.241268251918724  0.2578041477495969  1.0000
  C   C3        1.0  0.3015078401662597  0.7235925662537596  0.10679186282138063  1.0000
  C   C4        1.0  0.32987083866270717  0.3507735400890826  0.2967304477708616  1.0000
  C   C5        1.0  0.10063497038621527  0.757941216446697  0.572314612569982  1.0000
  C   C6        1.0  0.9865627774576338  0.7428575004759004  0.7881384093574311  1.0000
  C   C7        1.0  0.716357615438012  0.8841394685296  0.7764072793955504  1.0000
  C   C8        1.0  0.012931373610582053  0.12236200678780751  0.6197068727643225  1.0000
  C   C9        1.0  0.7433142410770505  0.4962259487711652  0.6898308553328469  1.0000
  C   C10       1.0  0.931156083498541  0.6114411964886002  0.21253958037371856  1.0000
  I   I1        1.0  0.46554520739218075  0.4162958739499964  0.04675590245629069  1.0000
  I   I2        1.0  0.9921130180982249  0.11240278753907329  0.9646165790736407  1.0000
  O   O1        1.0  0.8689340662671354  0.05695426174409109  0.2740668321496067  1.0000
  O   O2        1.0  0.6513821298355396  0.9721584699336381  0.8528138354535418  1.0000
  O   O3        1.0  0.8385833808057622  0.6930602298636948  0.27086008834605607  1.0000
  O   O4        1.0  0.9704057839537064  0.5916321102931785  0.8584483130596662  1.0000
  O   O5        1.0  0.4651448193929993  0.7483604153585892  0.4255726707229857  1.0000
  O   O6        1.0  0.050081485518994606  0.29017222313238866  0.6080668929306429  1.0000
  O   O7        1.0  0.33769228352359315  0.8424257200584012  0.02420171286778184  1.0000
  O   O8        1.0  0.2774416511762485  0.839731968080246  0.6180454259296612  1.0000
  O   O9        1.0  0.6280228872656513  0.35248994296716823  0.7464157592973982  1.0000
  O   O10       1.0  0.42473769813607787  0.26640224049808586  0.3553186285539221  1.0000
data_image188
_chemical_formula_structural       Re2C10I2O10
_chemical_formula_sum              "Re2 C10 I2 O10"
_cell_length_a       6.7806348447214
_cell_length_b       6.7806348447214
_cell_length_c       10.993743
_cell_angle_alpha    90.0
_cell_angle_beta     90.0
_cell_angle_gamma    110.32517840843863

_space_group_name_H-M_alt    "P 1"
_space_group_IT_number       1

loop_
  _space_group_symop_operation_xyz
  'x, y, z'

loop_
  _atom_site_type_symbol
  _atom_site_label
  _atom_site_symmetry_multiplicity
  _atom_site_fract_x
  _atom_site_fract_y
  _atom_site_fract_z
  _atom_site_occupancy
  Re  Re1       1.0  0.883360549327893  0.8138868768114436  0.6537551976239483  1.0000
  Re  Re2       1.0  0.14177400947792862  0.48523311872267044  0.21350998056984025  1.0000
  C   C1        1.0  0.3316653798636923  0.740495716973387  0.2942737715457266  1.0000
  C   C2        1.0  0.9316792853406928  0.23070756279124907  0.284319778352329  1.0000
  C   C3        1.0  0.2919817963173431  0.731604053606201  0.12577944946276348  1.0000
  C   C4        1.0  0.3624463289179679  0.41813562583948316  0.3151499784938654  1.0000
  C   C5        1.0  0.1987735057654052  0.9008105232901166  0.6409420426380804  1.0000
  C   C6        1.0  0.8907662999434937  0.6813210041604465  0.8205116472419103  1.0000
  C   C7        1.0  0.6366468283463891  0.8364863029162977  0.7704994567275425  1.0000
  C   C8        1.0  0.9982137134013691  0.11237236724561495  0.6243471826647329  1.0000
  C   C9        1.0  0.7227534735555591  0.5245037264768163  0.5788453642269998  1.0000
  C   C10       1.0  0.9048597790258459  0.5769736692172427  0.2514366052058941  1.0000
  I   I1        1.0  0.44605214742532473  0.33098373431178485  0.044245920523240834  1.0000
  I   I2        1.0  0.025863372928955908  0.15062175256645038  0.9492915547868649  1.0000
  O   O1        1.0  0.8096815278831017  0.06555948989478333  0.30561775446709216  1.0000
  O   O2        1.0  0.5379384672376082  0.8187865693090837  0.849713493688497  1.0000
  O   O3        1.0  0.8139358257234209  0.6413741529676757  0.3191296403720863  1.0000
  O   O4        1.0  0.9433431145110636  0.6386053444990838  0.9177865115835233  1.0000
  O   O5        1.0  0.4529645453454341  0.8832172669295597  0.3511792848967799  1.0000
  O   O6        1.0  0.9945601772014375  0.27184525862059994  0.6015938283284493  1.0000
  O   O7        1.0  0.32936637933204893  0.8731933004995579  0.06576349296480301  1.0000
  O   O8        1.0  0.3949986543905619  0.9817737796222811  0.6518313038550635  1.0000
  O   O9        1.0  0.6222501048415947  0.3343493120931728  0.5758781174780205  1.0000
  O   O10       1.0  0.4324521796819065  0.31365461534683453  0.36573455248848186  1.0000
data_image189
_chemical_formula_structural       Re2C10I2O10
_chemical_formula_sum              "Re2 C10 I2 O10"
_cell_length_a       6.7806348447214
_cell_length_b       6.7806348447214
_cell_length_c       10.993743
_cell_angle_alpha    90.0
_cell_angle_beta     90.0
_cell_angle_gamma    110.32517840843863

_space_group_name_H-M_alt    "P 1"
_space_group_IT_number       1

loop_
  _space_group_symop_operation_xyz
  'x, y, z'

loop_
  _atom_site_type_symbol
  _atom_site_label
  _atom_site_symmetry_multiplicity
  _atom_site_fract_x
  _atom_site_fract_y
  _atom_site_fract_z
  _atom_site_occupancy
  Re  Re1       1.0  0.933947428848846  0.8219183276284725  0.6767312261861834  1.0000
  Re  Re2       1.0  0.14381370885263117  0.45624783019094245  0.22285890458873994  1.0000
  C   C1        1.0  0.27230171388929675  0.6709950773284215  0.3363695390999672  1.0000
  C   C2        1.0  0.92894744613222  0.18269198916956192  0.26993875654958055  1.0000
  C   C3        1.0  0.27570487309908226  0.6716479134843679  0.0959106325108124  1.0000
  C   C4        1.0  0.240290960784022  0.26580120845551175  0.3372594172133699  1.0000
  C   C5        1.0  0.2579853464581454  0.9624694951374314  0.6393291092206911  1.0000
  C   C6        1.0  0.7906269200833573  0.5485601903699745  0.7702810015565758  1.0000
  C   C7        1.0  0.6658463119018907  0.8369440783111289  0.7311614004828074  1.0000
  C   C8        1.0  0.9957613904456196  0.10655566749994438  0.6389002235209468  1.0000
  C   C9        1.0  0.7938019674081871  0.5720159581380434  0.5649551164632087  1.0000
  C   C10       1.0  0.949195385358345  0.6223843840272987  0.23128392230656783  1.0000
  I   I1        1.0  0.4324173681439655  0.34965414786877586  0.030741441177760898  1.0000
  I   I2        1.0  0.01950920888200791  0.22466199382370355  0.959916010736938  1.0000
  O   O1        1.0  0.7740858866731269  0.04489945893736033  0.2628643873736525  1.0000
  O   O2        1.0  0.5463697393378935  0.871051402370974  0.7876902210136182  1.0000
  O   O3        1.0  0.8568408264990952  0.7186376541066943  0.2785594537798259  1.0000
  O   O4        1.0  0.7629942804765952  0.41020468007917177  0.8322864068626558  1.0000
  O   O5        1.0  0.36152787550951365  0.808538588510489  0.4063094022586942  1.0000
  O   O6        1.0  0.9896325520299748  0.2630265780165395  0.603708944973413  1.0000
  O   O7        1.0  0.36503258888764517  0.7782121322515323  0.02440823880787842  1.0000
  O   O8        1.0  0.40862446412284026  0.09864350392159653  0.6046560643195437  1.0000
  O   O9        1.0  0.6689779969975836  0.4354645041052181  0.504729676279101  1.0000
  O   O10       1.0  0.20964224216602811  0.13405219272716  0.4112178202344945  1.0000
data_image190
_chemical_formula_structural       Re2C10I2O10
_chemical_formula_sum              "Re2 C10 I2 O10"
_cell_length_a       6.7806348447214
_cell_length_b       6.7806348447214
_cell_length_c       10.993743
_cell_angle_alpha    90.0
_cell_angle_beta     90.0
_cell_angle_gamma    110.32517840843863

_space_group_name_H-M_alt    "P 1"
_space_group_IT_number       1

loop_
  _space_group_symop_operation_xyz
  'x, y, z'

loop_
  _atom_site_type_symbol
  _atom_site_label
  _atom_site_symmetry_multiplicity
  _atom_site_fract_x
  _atom_site_fract_y
  _atom_site_fract_z
  _atom_site_occupancy
  Re  Re1       1.0  0.9421581966617112  0.8416140030476568  0.700265954455256  1.0000
  Re  Re2       1.0  0.13205194343269486  0.40421086075755014  0.22732815491065672  1.0000
  C   C1        1.0  0.19981444439204593  0.5171999587097884  0.3786772862149999  1.0000
  C   C2        1.0  0.8700384414667516  0.18826601125175604  0.23957186844766398  1.0000
  C   C3        1.0  0.2926730603718304  0.6507329736760435  0.11115226369629538  1.0000
  C   C4        1.0  0.239646876627305  0.20350006501974546  0.27688314695277016  1.0000
  C   C5        1.0  0.2579288593715403  0.022996562252074797  0.6304940284761416  1.0000
  C   C6        1.0  0.7659390609782947  0.5586617656762756  0.701270581425707  1.0000
  C   C7        1.0  0.6540106115705226  0.8789346148100248  0.7253506465002403  1.0000
  C   C8        1.0  0.017594871773707332  0.16353262631380971  0.631090815175867  1.0000
  C   C9        1.0  0.9116500832917271  0.7119802925181025  0.549296274709051  1.0000
  C   C10       1.0  0.9348617035412317  0.6251723750689413  0.1864361813171142  1.0000
  I   I1        1.0  0.46771569256763124  0.36083249757086694  0.017357105993935917  1.0000
  I   I2        1.0  0.0065528432737769204  0.23504351330240414  0.9872647634250753  1.0000
  O   O1        1.0  0.6822091766554332  0.1428828792130733  0.2421166130051955  1.0000
  O   O2        1.0  0.4910627213488681  0.8920704551131744  0.7405391819915841  1.0000
  O   O3        1.0  0.8424387954505259  0.7463741906019208  0.201419480298176  1.0000
  O   O4        1.0  0.6996662514606964  0.3840500520545232  0.7326198814884277  1.0000
  O   O5        1.0  0.2903968647439874  0.5966114309847914  0.4701843073285534  1.0000
  O   O6        1.0  0.9973306945204777  0.3151169587424616  0.5833321291061677  1.0000
  O   O7        1.0  0.3402639080360192  0.8161570698733184  0.07320599032966592  1.0000
  O   O8        1.0  0.402316791116867  0.15158089417563492  0.5870298536567974  1.0000
  O   O9        1.0  0.8092962200807602  0.6263676849501215  0.46526619509945233  1.0000
  O   O10       1.0  0.2729324270166248  0.0487376247456429  0.3150443071711474  1.0000
data_image191
_chemical_formula_structural       Re2C10I2O10
_chemical_formula_sum              "Re2 C10 I2 O10"
_cell_length_a       6.7806348447214
_cell_length_b       6.7806348447214
_cell_length_c       10.993743
_cell_angle_alpha    90.0
_cell_angle_beta     90.0
_cell_angle_gamma    110.32517840843863

_space_group_name_H-M_alt    "P 1"
_space_group_IT_number       1

loop_
  _space_group_symop_operation_xyz
  'x, y, z'

loop_
  _atom_site_type_symbol
  _atom_site_label
  _atom_site_symmetry_multiplicity
  _atom_site_fract_x
  _atom_site_fract_y
  _atom_site_fract_z
  _atom_site_occupancy
  Re  Re1       1.0  0.9186631751644085  0.8756119943758801  0.6795465739361592  1.0000
  Re  Re2       1.0  0.11515274034401574  0.41270982854104665  0.2095739115286337  1.0000
  C   C1        1.0  0.24976106548057672  0.5304060424704617  0.3696400674590373  1.0000
  C   C2        1.0  0.8764151711721966  0.2874911691428429  0.30782711238448424  1.0000
  C   C3        1.0  0.3615616519533107  0.6043138449864754  0.10729720481205948  1.0000
  C   C4        1.0  0.17339172033942207  0.14748034374722357  0.26541469636313053  1.0000
  C   C5        1.0  0.20126022357198003  0.9485587536967639  0.6372136627593948  1.0000
  C   C6        1.0  0.8991807554613843  0.6126406599326655  0.7704928662378717  1.0000
  C   C7        1.0  0.632522848418509  0.8768589970789433  0.8023567436806396  1.0000
  C   C8        1.0  0.9977493692661671  0.168472718795456  0.6404007805915488  1.0000
  C   C9        1.0  0.9133861273004173  0.7781514700776677  0.5083283717252417  1.0000
  C   C10       1.0  0.9858540884423005  0.6104517909814615  0.17636082821062332  1.0000
  I   I1        1.0  0.5209838667114075  0.297806611063014  0.013541124191245535  1.0000
  I   I2        1.0  0.9374955705967712  0.22346639945548208  0.9962466494970292  1.0000
  O   O1        1.0  0.7393724507357824  0.24584658041918372  0.3838327508403161  1.0000
  O   O2        1.0  0.4823386516198669  0.8675673336738406  0.8472872646704646  1.0000
  O   O3        1.0  0.8939664079473747  0.7211199983721786  0.13465567897434655  1.0000
  O   O4        1.0  0.8807800449314526  0.45232401903872266  0.8134410582987406  1.0000
  O   O5        1.0  0.34926895622882925  0.6461147863654855  0.4411060622248421  1.0000
  O   O6        1.0  0.01748758740359535  0.350012989125315  0.6196257842957528  1.0000
  O   O7        1.0  0.49987590312304464  0.7573985719664003  0.11153309694838429  1.0000
  O   O8        1.0  0.3800502919974593  0.0072391941511152835  0.6389613502432906  1.0000
  O   O9        1.0  0.8850604967421888  0.7404922729418255  0.407810870094921  1.0000
  O   O10       1.0  0.19027150253058756  0.0006766365108163317  0.30131424710362087  1.0000
data_image192
_chemical_formula_structural       Re2C10I2O10
_chemical_formula_sum              "Re2 C10 I2 O10"
_cell_length_a       6.7806348447214
_cell_length_b       6.7806348447214
_cell_length_c       10.993743
_cell_angle_alpha    90.0
_cell_angle_beta     90.0
_cell_angle_gamma    110.32517840843863

_space_group_name_H-M_alt    "P 1"
_space_group_IT_number       1

loop_
  _space_group_symop_operation_xyz
  'x, y, z'

loop_
  _atom_site_type_symbol
  _atom_site_label
  _atom_site_symmetry_multiplicity
  _atom_site_fract_x
  _atom_site_fract_y
  _atom_site_fract_z
  _atom_site_occupancy
  Re  Re1       1.0  0.9057523463150532  0.8759986232294886  0.6631216498053966  1.0000
  Re  Re2       1.0  0.06087491809535484  0.3973624627870438  0.21380289589209625  1.0000
  C   C1        1.0  0.26458764267633883  0.5636491275058197  0.3513654903586518  1.0000
  C   C2        1.0  0.8370914979978412  0.286344417434129  0.3470905260553545  1.0000
  C   C3        1.0  0.3435409997714703  0.6457157946935597  0.15192708197912735  1.0000
  C   C4        1.0  0.24467567889646935  0.20512465983609077  0.21429390709470053  1.0000
  C   C5        1.0  0.21160433606804663  0.01181597833344578  0.6878713497911606  1.0000
  C   C6        1.0  0.9642828728784086  0.6253476177758489  0.815290956825895  1.0000
  C   C7        1.0  0.6692582960549549  0.8350865844177708  0.8242482231286559  1.0000
  C   C8        1.0  0.9394612349387425  0.15796588087802554  0.6546441444713922  1.0000
  C   C9        1.0  0.8331865480070063  0.7993324815023936  0.4881963754937414  1.0000
  C   C10       1.0  0.005338932572948151  0.6083176201817562  0.1276460874263992  1.0000
  I   I1        1.0  0.5496264045440675  0.2901614278694027  0.0008633611623967141  1.0000
  I   I2        1.0  0.9846692270524028  0.2152418287007889  0.9931065090850355  1.0000
  O   O1        1.0  0.6868598545814847  0.26024104362978095  0.416502423099429  1.0000
  O   O2        1.0  0.6040759223156731  0.7734286414262539  0.9163169721827011  1.0000
  O   O3        1.0  0.9263167585692554  0.6910051346139969  0.06438985718690578  1.0000
  O   O4        1.0  0.1070735038418038  0.6528344115465524  0.8784860651041243  1.0000
  O   O5        1.0  0.32799862648485295  0.5784608445160098  0.4422090365001915  1.0000
  O   O6        1.0  0.9092035113940512  0.3253981619603743  0.6441132776872204  1.0000
  O   O7        1.0  0.47497759478166207  0.8155094602091728  0.14770832375361512  1.0000
  O   O8        1.0  0.3561768977379516  0.007408491286003918  0.7376795942942052  1.0000
  O   O9        1.0  0.7181126689345727  0.7208180574520886  0.4062477180531761  1.0000
  O   O10       1.0  0.3751812119136504  0.13883148753079028  0.25368392910471665  1.0000
data_image193
_chemical_formula_structural       Re2C10I2O10
_chemical_formula_sum              "Re2 C10 I2 O10"
_cell_length_a       6.7806348447214
_cell_length_b       6.7806348447214
_cell_length_c       10.993743
_cell_angle_alpha    90.0
_cell_angle_beta     90.0
_cell_angle_gamma    110.32517840843863

_space_group_name_H-M_alt    "P 1"
_space_group_IT_number       1

loop_
  _space_group_symop_operation_xyz
  'x, y, z'

loop_
  _atom_site_type_symbol
  _atom_site_label
  _atom_site_symmetry_multiplicity
  _atom_site_fract_x
  _atom_site_fract_y
  _atom_site_fract_z
  _atom_site_occupancy
  Re  Re1       1.0  0.9274599676982451  0.8735776338315376  0.6705916527741786  1.0000
  Re  Re2       1.0  0.02498993830338093  0.4132180483498767  0.23378315587228907  1.0000
  C   C1        1.0  0.10200744377426227  0.5108786111748573  0.3993458705005735  1.0000
  C   C2        1.0  0.7609298856170957  0.22299577249086114  0.34168531144671155  1.0000
  C   C3        1.0  0.27747401187438614  0.5973046332688846  0.1530343645822753  1.0000
  C   C4        1.0  0.17691805836774988  0.18195825161702542  0.22057384749805556  1.0000
  C   C5        1.0  0.20052737039220148  0.07708027074667032  0.7109131858290959  1.0000
  C   C6        1.0  0.039319186875490304  0.7200125498541454  0.7734353217939108  1.0000
  C   C7        1.0  0.6638513322898607  0.7640667713572584  0.7526540895580908  1.0000
  C   C8        1.0  0.895005947037072  0.15622349197934193  0.6746438338417747  1.0000
  C   C9        1.0  0.8219075484017685  0.7713329291121417  0.5222091928092525  1.0000
  C   C10       1.0  0.9313447856877525  0.6434788191363707  0.16080118218413808  1.0000
  I   I1        1.0  0.5873164666156471  0.31226721859616835  0.9666928810448999  1.0000
  I   I2        1.0  0.052526849800778486  0.2037747114097339  0.9827823080486718  1.0000
  O   O1        1.0  0.6288105431442111  0.09883293819847139  0.39866253841616595  1.0000
  O   O2        1.0  0.5023830876573085  0.6746947945466643  0.7992752435101323  1.0000
  O   O3        1.0  0.9334253557234454  0.7877149388829361  0.10900524901917745  1.0000
  O   O4        1.0  0.14736080565755183  0.6815857967833673  0.8501789626786139  1.0000
  O   O5        1.0  0.17654430903643745  0.5446502630942509  0.49947876702391336  1.0000
  O   O6        1.0  0.872826122869063  0.32386880732987544  0.7150179221833362  1.0000
  O   O7        1.0  0.4201830738133993  0.752117402655279  0.16782885306401296  1.0000
  O   O8        1.0  0.3726451967960278  0.1564485485734106  0.7253856095681168  1.0000
  O   O9        1.0  0.7733362044270881  0.6771994201220074  0.4229041045263748  1.0000
  O   O10       1.0  0.32431887651198565  0.11770159082123391  0.2128243247332565  1.0000
data_image194
_chemical_formula_structural       Re2C10I2O10
_chemical_formula_sum              "Re2 C10 I2 O10"
_cell_length_a       6.7806348447214
_cell_length_b       6.7806348447214
_cell_length_c       10.993743
_cell_angle_alpha    90.0
_cell_angle_beta     90.0
_cell_angle_gamma    110.32517840843863

_space_group_name_H-M_alt    "P 1"
_space_group_IT_number       1

loop_
  _space_group_symop_operation_xyz
  'x, y, z'

loop_
  _atom_site_type_symbol
  _atom_site_label
  _atom_site_symmetry_multiplicity
  _atom_site_fract_x
  _atom_site_fract_y
  _atom_site_fract_z
  _atom_site_occupancy
  Re  Re1       1.0  0.9458890699481164  0.9121991280452891  0.6689347650047809  1.0000
  Re  Re2       1.0  0.9794548974327917  0.37900076455413517  0.2386578110207767  1.0000
  C   C1        1.0  0.08428240789005444  0.5380638704170297  0.40990862056351623  1.0000
  C   C2        1.0  0.7390024497301945  0.22801740407707732  0.3544415802806593  1.0000
  C   C3        1.0  0.2642600726759224  0.5171290743417457  0.15784292019633966  1.0000
  C   C4        1.0  0.15974476811015226  0.11168519842560364  0.28265717520481415  1.0000
  C   C5        1.0  0.25778776855742214  0.1158454601752679  0.6076938212096035  1.0000
  C   C6        1.0  0.03278875554889699  0.7271389519895881  0.7809346201963951  1.0000
  C   C7        1.0  0.6648744123164958  0.7527003831154362  0.713887039538077  1.0000
  C   C8        1.0  0.9081875354094452  0.18098184445813814  0.6762413459308116  1.0000
  C   C9        1.0  0.906681950342575  0.8662286400645484  0.48614223000094314  1.0000
  C   C10       1.0  0.8527832510579587  0.5785347944320245  0.18760001788528366  1.0000
  I   I1        1.0  0.6348279999125603  0.31443741364162153  0.9635976584484746  1.0000
  I   I2        1.0  0.051409664354822304  0.18914609766550505  0.0036429384432284523  1.0000
  O   O1        1.0  0.5972476432276839  0.18616473860337115  0.4205726857720249  1.0000
  O   O2        1.0  0.48451747975999604  0.6675600235743626  0.7329133486631837  1.0000
  O   O3        1.0  0.8098148808253895  0.7195084250499328  0.17033750283119134  1.0000
  O   O4        1.0  0.11667760875695421  0.6505748153047307  0.8524390774714319  1.0000
  O   O5        1.0  0.20528420717243526  0.6735424371565946  0.47564254078314466  1.0000
  O   O6        1.0  0.8483783372282317  0.315584816131286  0.690603653387213  1.0000
  O   O7        1.0  0.43114295043378387  0.636913569284956  0.13723928172383254  1.0000
  O   O8        1.0  0.4327335561484116  0.18108511966666352  0.6069968543662262  1.0000
  O   O9        1.0  0.8658651655493581  0.7909744019420413  0.3867870279911551  1.0000
  O   O10       1.0  0.3093961679910846  0.0717644288896857  0.29209545737143366  1.0000
data_image195
_chemical_formula_structural       Re2C10I2O10
_chemical_formula_sum              "Re2 C10 I2 O10"
_cell_length_a       6.7806348447214
_cell_length_b       6.7806348447214
_cell_length_c       10.993743
_cell_angle_alpha    90.0
_cell_angle_beta     90.0
_cell_angle_gamma    110.32517840843863

_space_group_name_H-M_alt    "P 1"
_space_group_IT_number       1

loop_
  _space_group_symop_operation_xyz
  'x, y, z'

loop_
  _atom_site_type_symbol
  _atom_site_label
  _atom_site_symmetry_multiplicity
  _atom_site_fract_x
  _atom_site_fract_y
  _atom_site_fract_z
  _atom_site_occupancy
  Re  Re1       1.0  0.9792964397326207  0.9466563908944683  0.6577113478672613  1.0000
  Re  Re2       1.0  0.03649338061596564  0.3940916866249127  0.2445932992271562  1.0000
  C   C1        1.0  0.23237380710094196  0.48011431915600533  0.3730125009709519  1.0000
  C   C2        1.0  0.7945856169413139  0.2536836148685616  0.3747359164722379  1.0000
  C   C3        1.0  0.21181174461358562  0.5683869289775165  0.09755752348868639  1.0000
  C   C4        1.0  0.10979278681969351  0.1550527124684477  0.3137825808646056  1.0000
  C   C5        1.0  0.310382669170707  0.19337576787027158  0.6509188791524478  1.0000
  C   C6        1.0  0.09747736019140375  0.8624930653072627  0.815370417411006  1.0000
  C   C7        1.0  0.6857721771737366  0.7762923317162801  0.7493051471464579  1.0000
  C   C8        1.0  0.9412145815431565  0.20992609017326735  0.666475299571658  1.0000
  C   C9        1.0  0.857791544457344  0.8126746704938087  0.5204116979813355  1.0000
  C   C10       1.0  0.8601423636485923  0.5491614525242681  0.20210191882820905  1.0000
  I   I1        1.0  0.5651269962983357  0.25075888839178867  0.9423731102749919  1.0000
  I   I2        1.0  0.9792262465139989  0.15240744364723224  0.012666428297426202  1.0000
  O   O1        1.0  0.6289755875631212  0.1934774543086164  0.40932741295633424  1.0000
  O   O2        1.0  0.518444442472481  0.6886701850522248  0.722810507132174  1.0000
  O   O3        1.0  0.728708284568238  0.6208055577589278  0.17936290558939683  1.0000
  O   O4        1.0  0.1533931346274962  0.7487716645953366  0.8759507324801671  1.0000
  O   O5        1.0  0.38408882775997616  0.6027084629637169  0.40768850245682314  1.0000
  O   O6        1.0  0.8959484918270881  0.3479009597696239  0.672205421920359  1.0000
  O   O7        1.0  0.31355594107121687  0.7288059584450468  0.061279696899686  1.0000
  O   O8        1.0  0.4768471801446017  0.27141927813127953  0.6759684989936903  1.0000
  O   O9        1.0  0.7307153721587751  0.6604504288654774  0.4706067541423593  1.0000
  O   O10       1.0  0.18928254239065923  0.07032235823150913  0.3736463857941715  1.0000
data_image196
_chemical_formula_structural       Re2C10I2O10
_chemical_formula_sum              "Re2 C10 I2 O10"
_cell_length_a       6.7806348447214
_cell_length_b       6.7806348447214
_cell_length_c       10.993743
_cell_angle_alpha    90.0
_cell_angle_beta     90.0
_cell_angle_gamma    110.32517840843863

_space_group_name_H-M_alt    "P 1"
_space_group_IT_number       1

loop_
  _space_group_symop_operation_xyz
  'x, y, z'

loop_
  _atom_site_type_symbol
  _atom_site_label
  _atom_site_symmetry_multiplicity
  _atom_site_fract_x
  _atom_site_fract_y
  _atom_site_fract_z
  _atom_site_occupancy
  Re  Re1       1.0  0.025454669989019463  0.010062903205325435  0.6223211871465991  1.0000
  Re  Re2       1.0  0.04608009106788527  0.3634481006474257  0.267029743102553  1.0000
  C   C1        1.0  0.16373602946347945  0.5277265579724764  0.40839818412226025  1.0000
  C   C2        1.0  0.807983605400884  0.18779181399039255  0.3334641374602596  1.0000
  C   C3        1.0  0.26669525122708215  0.5993979182926648  0.16388028639430388  1.0000
  C   C4        1.0  0.205472979406921  0.17324816419195532  0.3124080066768225  1.0000
  C   C5        1.0  0.2984989501406825  0.24940094926606346  0.5723621917656267  1.0000
  C   C6        1.0  0.18624782043738672  0.8381650541381402  0.7013729468408143  1.0000
  C   C7        1.0  0.8495653803962973  0.9134501841956852  0.7690013910210087  1.0000
  C   C8        1.0  0.9299290844581193  0.27072784189005317  0.6147754804043921  1.0000
  C   C9        1.0  0.916974294913121  0.8084708089859199  0.4929489226229377  1.0000
  C   C10       1.0  0.8394521392878995  0.5589894687060069  0.24440053686243557  1.0000
  I   I1        1.0  0.5324169207040192  0.22753010389395895  0.9538954389876961  1.0000
  I   I2        1.0  0.8604662912747033  0.09699983065084317  0.02839910678510404  1.0000
  O   O1        1.0  0.6419531570451266  0.14822220642450093  0.3917098546624782  1.0000
  O   O2        1.0  0.7009933134171034  0.7907702185476496  0.824464231432361  1.0000
  O   O3        1.0  0.6947440797562453  0.6098014602164796  0.2260596788519738  1.0000
  O   O4        1.0  0.23807288701443552  0.7347441467237548  0.7682424147058209  1.0000
  O   O5        1.0  0.17546489628944373  0.6163458854406645  0.5016158175416818  1.0000
  O   O6        1.0  0.9045726983179057  0.3992939676121092  0.6692257920741749  1.0000
  O   O7        1.0  0.3803355835682063  0.7545593821769929  0.11776741241144262  1.0000
  O   O8        1.0  0.47126440172975004  0.288349208732333  0.6028284647506352  1.0000
  O   O9        1.0  0.8583288852292055  0.6221347012601052  0.464922245407372  1.0000
  O   O10       1.0  0.22321119099188336  0.0028301370841913014  0.32675243583882807  1.0000
data_image197
_chemical_formula_structural       Re2C10I2O10
_chemical_formula_sum              "Re2 C10 I2 O10"
_cell_length_a       6.7806348447214
_cell_length_b       6.7806348447214
_cell_length_c       10.993743
_cell_angle_alpha    90.0
_cell_angle_beta     90.0
_cell_angle_gamma    110.32517840843863

_space_group_name_H-M_alt    "P 1"
_space_group_IT_number       1

loop_
  _space_group_symop_operation_xyz
  'x, y, z'

loop_
  _atom_site_type_symbol
  _atom_site_label
  _atom_site_symmetry_multiplicity
  _atom_site_fract_x
  _atom_site_fract_y
  _atom_site_fract_z
  _atom_site_occupancy
  Re  Re1       1.0  0.03334973338591851  0.04919526697841681  0.6248867202069486  1.0000
  Re  Re2       1.0  0.016847702367796015  0.33539887205508556  0.2843249383327128  1.0000
  C   C1        1.0  0.18068891622548786  0.5730278771679151  0.365083894511205  1.0000
  C   C2        1.0  0.7630066994083837  0.09421610724005766  0.3457841562850017  1.0000
  C   C3        1.0  0.20967079903866132  0.5144190455849124  0.13557918295078994  1.0000
  C   C4        1.0  0.21906963867008156  0.20207676508356498  0.26361182012514617  1.0000
  C   C5        1.0  0.29669219513153333  0.2450987466426396  0.5254542475570123  1.0000
  C   C6        1.0  0.22824154836659258  0.8897534709782909  0.6715896351922197  1.0000
  C   C7        1.0  0.8253254245010182  0.9182259403883529  0.746519857967116  1.0000
  C   C8        1.0  0.9482872553618975  0.2779962947289132  0.6470138659022868  1.0000
  C   C9        1.0  0.9712432720203413  0.88022646942798  0.4488687569803402  1.0000
  C   C10       1.0  0.853561535080176  0.5141243806996991  0.16347957465503848  1.0000
  I   I1        1.0  0.5174940842299944  0.1878057767024147  0.9924917156349458  1.0000
  I   I2        1.0  0.8854786083269706  0.12236169092271953  0.06637226929078929  1.0000
  O   O1        1.0  0.5941727022841848  0.05205950768700474  0.3577010459599903  1.0000
  O   O2        1.0  0.6628110496069408  0.7984905131948099  0.7864223723052675  1.0000
  O   O3        1.0  0.7668231146058017  0.5788061958797566  0.0981318468534169  1.0000
  O   O4        1.0  0.32384166054455454  0.7837851337239273  0.6905665133600908  1.0000
  O   O5        1.0  0.2956043188984114  0.6900940645166482  0.4301105289739397  1.0000
  O   O6        1.0  0.8548897216385621  0.3834350682632013  0.6770630716516136  1.0000
  O   O7        1.0  0.3630363320256062  0.6180475364854194  0.08641200488799501  1.0000
  O   O8        1.0  0.4658982075642011  0.2842862329342455  0.5062419501339275  1.0000
  O   O9        1.0  0.8665136007187039  0.7217888510914091  0.3836795987721447  1.0000
  O   O10       1.0  0.24667713688185922  0.04994820454023334  0.2627584809669786  1.0000
data_image198
_chemical_formula_structural       Re2C10I2O10
_chemical_formula_sum              "Re2 C10 I2 O10"
_cell_length_a       6.7806348447214
_cell_length_b       6.7806348447214
_cell_length_c       10.993743
_cell_angle_alpha    90.0
_cell_angle_beta     90.0
_cell_angle_gamma    110.32517840843863

_space_group_name_H-M_alt    "P 1"
_space_group_IT_number       1

loop_
  _space_group_symop_operation_xyz
  'x, y, z'

loop_
  _atom_site_type_symbol
  _atom_site_label
  _atom_site_symmetry_multiplicity
  _atom_site_fract_x
  _atom_site_fract_y
  _atom_site_fract_z
  _atom_site_occupancy
  Re  Re1       1.0  0.9876347176073293  0.06720956101404485  0.6442443071745104  1.0000
  Re  Re2       1.0  0.02978861277828978  0.32418450670564136  0.24969782693701875  1.0000
  C   C1        1.0  0.19109953145798114  0.5493813780145709  0.3761988706753534  1.0000
  C   C2        1.0  0.7825606347265688  0.13332393252404678  0.36187939147833603  1.0000
  C   C3        1.0  0.36305778783056447  0.4615711490167333  0.05239639986719572  1.0000
  C   C4        1.0  0.23217004501713479  0.1834637042983887  0.2571240506031992  1.0000
  C   C5        1.0  0.2338273657462584  0.2552695891651534  0.5630605820096023  1.0000
  C   C6        1.0  0.17609598569577056  0.9153646698374417  0.6843270017537484  1.0000
  C   C7        1.0  0.8402077287221403  0.9415569244724014  0.8012937050573231  1.0000
  C   C8        1.0  0.9488488769713556  0.3538244241153805  0.6573352597942528  1.0000
  C   C9        1.0  0.9041613002516055  0.8718521936684017  0.5032038046472996  1.0000
  C   C10       1.0  0.9731971358840323  0.5428172619871328  0.14844751054634917  1.0000
  I   I1        1.0  0.4623513001548015  0.17844075823687214  0.0010630491948508958  1.0000
  I   I2        1.0  0.9311267584753172  0.10265770358215709  0.060373064103717115  1.0000
  O   O1        1.0  0.634872379400043  0.07582020062064045  0.4121184155103026  1.0000
  O   O2        1.0  0.7863577700227431  0.8225984831064782  0.8873139987829598  1.0000
  O   O3        1.0  0.9970103306000123  0.7059934585911174  0.09905315030958495  1.0000
  O   O4        1.0  0.26639456768192543  0.799486861033587  0.6630431748086514  1.0000
  O   O5        1.0  0.37792232646130064  0.6044199866984183  0.3906864130774199  1.0000
  O   O6        1.0  0.8103276341064636  0.4095085119347819  0.6901171549563594  1.0000
  O   O7        1.0  0.3965927847501832  0.601186948400084  0.9886356697948883  1.0000
  O   O8        1.0  0.388893113590699  0.29245095555092526  0.5054934420616524  1.0000
  O   O9        1.0  0.870356923271659  0.7030137154624672  0.45469712725992667  1.0000
  O   O10       1.0  0.2760740643851547  0.0343105831267887  0.27549127174493254  1.0000
data_image199
_chemical_formula_structural       Re2C10I2O10
_chemical_formula_sum              "Re2 C10 I2 O10"
_cell_length_a       6.7806348447214
_cell_length_b       6.7806348447214
_cell_length_c       10.993743
_cell_angle_alpha    90.0
_cell_angle_beta     90.0
_cell_angle_gamma    110.32517840843863

_space_group_name_H-M_alt    "P 1"
_space_group_IT_number       1

loop_
  _space_group_symop_operation_xyz
  'x, y, z'

loop_
  _atom_site_type_symbol
  _atom_site_label
  _atom_site_symmetry_multiplicity
  _atom_site_fract_x
  _atom_site_fract_y
  _atom_site_fract_z
  _atom_site_occupancy
  Re  Re1       1.0  0.9757603509820677  0.06703722879136564  0.6881240690527324  1.0000
  Re  Re2       1.0  0.06491879582212136  0.31737689690584675  0.22826298475850995  1.0000
  C   C1        1.0  0.15876273364674323  0.5464588528502692  0.3313852375159909  1.0000
  C   C2        1.0  0.8591405675060018  0.2454872027650556  0.34422680193053945  1.0000
  C   C3        1.0  0.3225968372125878  0.6151009563831585  0.8230286817789301  1.0000
  C   C4        1.0  0.23905588704024594  0.16392700658166395  0.3162686369250462  1.0000
  C   C5        1.0  0.20044288652139075  0.2593561903700395  0.6011961522595276  1.0000
  C   C6        1.0  0.1351053759525933  0.8702905254865645  0.659172023648698  1.0000
  C   C7        1.0  0.8325915115139448  0.8252257077245829  0.780918790256693  1.0000
  C   C8        1.0  0.7205395635328203  0.14644135816686976  0.6697685051713445  1.0000
  C   C9        1.0  0.8077182011139195  0.865355258654565  0.5699046497868259  1.0000
  C   C10       1.0  0.08033309518932889  0.5915405727526424  0.15179093199866714  1.0000
  I   I1        1.0  0.5101185583786645  0.20649479245126542  0.9830583417953707  1.0000
  I   I2        1.0  0.9349893890805286  0.09830329077321476  0.04769218766470413  1.0000
  O   O1        1.0  0.7454445172879806  0.2160374392904932  0.4278332569616321  1.0000
  O   O2        1.0  0.7548357147981646  0.6627026722727233  0.8203638383876216  1.0000
  O   O3        1.0  0.08629859136411473  0.7635126249456525  0.15082928652394956  1.0000
  O   O4        1.0  0.18505459560200607  0.7231667848245641  0.6489669439121476  1.0000
  O   O5        1.0  0.3115255060874266  0.6605018429521035  0.3754637033979514  1.0000
  O   O6        1.0  0.6015805563225701  0.22790889283353932  0.6839292757597719  1.0000
  O   O7        1.0  0.3904829216524823  0.654184699906835  0.9204622660112857  1.0000
  O   O8        1.0  0.34967558753992023  0.388000020568601  0.5589126902155234  1.0000
  O   O9        1.0  0.6696202517184419  0.7144870630041359  0.525871093553361  1.0000
  O   O10       1.0  0.23594088599828222  0.009630615755742016  0.3678729801128249  1.0000
data_image200
_chemical_formula_structural       Re2C10I2O10
_chemical_formula_sum              "Re2 C10 I2 O10"
_cell_length_a       6.7806348447214
_cell_length_b       6.7806348447214
_cell_length_c       10.993743
_cell_angle_alpha    90.0
_cell_angle_beta     90.0
_cell_angle_gamma    110.32517840843863

_space_group_name_H-M_alt    "P 1"
_space_group_IT_number       1

loop_
  _space_group_symop_operation_xyz
  'x, y, z'

loop_
  _atom_site_type_symbol
  _atom_site_label
  _atom_site_symmetry_multiplicity
  _atom_site_fract_x
  _atom_site_fract_y
  _atom_site_fract_z
  _atom_site_occupancy
  Re  Re1       1.0  0.9926467833711244  0.05480174830655926  0.719364245377503  1.0000
  Re  Re2       1.0  0.09471908921763596  0.3237279472402742  0.21623192514559908  1.0000
  C   C1        1.0  0.2676357994176106  0.579427950066381  0.3045645882423073  1.0000
  C   C2        1.0  0.8947391006489336  0.3423054370879497  0.3368238526117444  1.0000
  C   C3        1.0  0.2827117333308003  0.5182725318450816  0.9213267188797168  1.0000
  C   C4        1.0  0.11394209047010329  0.13528709614796827  0.32304927825575436  1.0000
  C   C5        1.0  0.26204330074371684  0.28969917116891325  0.6604982197845553  1.0000
  C   C6        1.0  0.1594041991603806  0.8526579065137473  0.6616861729841508  1.0000
  C   C7        1.0  0.8858438367599133  0.7536719353116449  0.7948878715841324  1.0000
  C   C8        1.0  0.7061091125503174  0.012714905195929216  0.7211525795016842  1.0000
  C   C9        1.0  0.8736207325980542  0.0011410587448164033  0.5570435560726992  1.0000
  C   C10       1.0  0.8999228202036791  0.5390008575719625  0.17536329129473366  1.0000
  I   I1        1.0  0.4591251552358425  0.19803545107567572  0.9859914831368165  1.0000
  I   I2        1.0  0.9345016221101275  0.11440575516538176  0.9907869577526807  1.0000
  O   O1        1.0  0.8031098503574822  0.32653532847741473  0.43634806908691215  1.0000
  O   O2        1.0  0.8515436263463103  0.5963623369943659  0.8427698646995142  1.0000
  O   O3        1.0  0.8790601321386241  0.6926566356140884  0.20357041864860043  1.0000
  O   O4        1.0  0.18312476899467833  0.7529981285965673  0.5849816175537401  1.0000
  O   O5        1.0  0.36683833392306453  0.7156700964893614  0.3686451336340499  1.0000
  O   O6        1.0  0.5345694327662227  0.04815844534882707  0.7386780118300735  1.0000
  O   O7        1.0  0.37321488953398674  0.6448861702765433  0.8530361571399572  1.0000
  O   O8        1.0  0.41939034563472033  0.4135947185346968  0.6236078847954879  1.0000
  O   O9        1.0  0.7465261997806976  0.9019570346592239  0.48174845153586676  1.0000
  O   O10       1.0  0.06578986431355427  0.0040722873431777275  0.396497162119678  1.0000
