data_image0
_chemical_formula_structural       Sb2H2O4F12
_chemical_formula_sum              "Sb2 H2 O4 F12"
_cell_length_a       5.174112999999999
_cell_length_b       7.3015345668964695
_cell_length_c       8.134955459169152
_cell_angle_alpha    90.9395314512041
_cell_angle_beta     97.22151606041648
_cell_angle_gamma    91.96796560956827

_space_group_name_H-M_alt    "P 1"
_space_group_IT_number       1

loop_
  _space_group_symop_operation_xyz
  'x, y, z'

loop_
  _atom_site_type_symbol
  _atom_site_label
  _atom_site_symmetry_multiplicity
  _atom_site_fract_x
  _atom_site_fract_y
  _atom_site_fract_z
  _atom_site_occupancy
  Sb  Sb1       1.0  0.5396120000000001  0.7344750000000001  0.772871  1.0000
  Sb  Sb2       1.0  0.46038799999999996  0.265525  0.22712900000000003  1.0000
  H   H1        1.0  0.15091399999999996  0.9164470000000001  0.146517  1.0000
  H   H2        1.0  0.849086  0.083553  0.8534829999999999  1.0000
  O   O1        1.0  0.010312000000000002  0.745511  0.22520000000000004  1.0000
  O   O2        1.0  0.081971  0.738203  0.3747829999999999  1.0000
  O   O3        1.0  0.9180290000000001  0.261797  0.625217  1.0000
  O   O4        1.0  0.9896880000000001  0.254489  0.7748  1.0000
  F   F1        1.0  0.15037700000000004  0.38450400000000007  0.14880999999999997  1.0000
  F   F2        1.0  0.28296599999999994  0.9121169999999998  0.722776  1.0000
  F   F3        1.0  0.224742  0.027956  0.10109599999999999  1.0000
  F   F4        1.0  0.349734  0.526687  0.6754630000000001  1.0000
  F   F5        1.0  0.309441  0.194648  0.418001  1.0000
  F   F6        1.0  0.436881  0.716952  0.9883410000000001  1.0000
  F   F7        1.0  0.563119  0.283048  0.011659000000000008  1.0000
  F   F8        1.0  0.690559  0.805352  0.581999  1.0000
  F   F9        1.0  0.650266  0.473313  0.324537  1.0000
  F   F10       1.0  0.7752580000000001  0.9720440000000001  0.8989039999999999  1.0000
  F   F11       1.0  0.717034  0.087883  0.277224  1.0000
  F   F12       1.0  0.849623  0.6154960000000002  0.85119  1.0000
data_image1
_chemical_formula_structural       Sb2H2O4F12
_chemical_formula_sum              "Sb2 H2 O4 F12"
_cell_length_a       5.174112999999999
_cell_length_b       7.3015345668964695
_cell_length_c       8.134955459169152
_cell_angle_alpha    90.9395314512041
_cell_angle_beta     97.22151606041648
_cell_angle_gamma    91.96796560956827

_space_group_name_H-M_alt    "P 1"
_space_group_IT_number       1

loop_
  _space_group_symop_operation_xyz
  'x, y, z'

loop_
  _atom_site_type_symbol
  _atom_site_label
  _atom_site_symmetry_multiplicity
  _atom_site_fract_x
  _atom_site_fract_y
  _atom_site_fract_z
  _atom_site_occupancy
  Sb  Sb1       1.0  0.48496537709841336  0.7113698633076445  0.7635537570466239  1.0000
  Sb  Sb2       1.0  0.4904987403627311  0.2830444126009578  0.238261573539723  1.0000
  H   H1        1.0  0.3000036904822867  0.9691598561380229  0.9432897414753056  1.0000
  H   H2        1.0  0.7846129648573502  0.0056197626866178844  0.00771500890394905  1.0000
  O   O1        1.0  0.10627195521026757  0.7302007846173989  0.2101634106211546  1.0000
  O   O2        1.0  0.15665737366205087  0.804793453415238  0.34953573284610195  1.0000
  O   O3        1.0  0.8696015135236457  0.2695526041672009  0.5919451502529949  1.0000
  O   O4        1.0  0.8748426709131041  0.24683921099913134  0.7478106720493825  1.0000
  F   F1        1.0  0.20115035143759452  0.42665411997410785  0.1597858628891088  1.0000
  F   F2        1.0  0.29919150638618563  0.9307777389519325  0.7785308144678268  1.0000
  F   F3        1.0  0.26534457063831873  0.042749581818392245  0.08228972794708829  1.0000
  F   F4        1.0  0.27861341544607  0.5035223741409914  0.6727722075995356  1.0000
  F   F5        1.0  0.36314500132472816  0.18658949054369536  0.4383904526274404  1.0000
  F   F6        1.0  0.4111109417929181  0.741589575939674  0.014980827781259531  1.0000
  F   F7        1.0  0.6539595857062644  0.25159311448473665  0.037863231735198746  1.0000
  F   F8        1.0  0.6296048974561527  0.8172143901422674  0.5886194089144141  1.0000
  F   F9        1.0  0.741897201132138  0.47073910767000093  0.31246600841216626  1.0000
  F   F10       1.0  0.7717991395271211  0.9547133349427882  0.8906011392334344  1.0000
  F   F11       1.0  0.724165853832663  0.06309903376180677  0.2798238479403339  1.0000
  F   F12       1.0  0.805632305123044  0.6047953070647157  0.8318638074812506  1.0000
data_image2
_chemical_formula_structural       Sb2H2O4F12
_chemical_formula_sum              "Sb2 H2 O4 F12"
_cell_length_a       5.174112999999999
_cell_length_b       7.3015345668964695
_cell_length_c       8.134955459169152
_cell_angle_alpha    90.9395314512041
_cell_angle_beta     97.22151606041648
_cell_angle_gamma    91.96796560956827

_space_group_name_H-M_alt    "P 1"
_space_group_IT_number       1

loop_
  _space_group_symop_operation_xyz
  'x, y, z'

loop_
  _atom_site_type_symbol
  _atom_site_label
  _atom_site_symmetry_multiplicity
  _atom_site_fract_x
  _atom_site_fract_y
  _atom_site_fract_z
  _atom_site_occupancy
  Sb  Sb1       1.0  0.5414700387715552  0.06728220282981047  0.6811038487662038  1.0000
  Sb  Sb2       1.0  0.7550782730517938  0.7606073707593737  0.3520997137789994  1.0000
  H   H1        1.0  0.7919319224492938  0.48670855986347306  0.07367910974426195  1.0000
  H   H2        1.0  0.4545773356048244  0.5591782727751706  0.05352729354035546  1.0000
  O   O1        1.0  0.21056549984936623  0.19797216151732044  0.05071237687030816  1.0000
  O   O2        1.0  0.5088282425303987  0.6979775621528006  0.7639158987126109  1.0000
  O   O3        1.0  0.12478324843219113  0.2297921733084678  0.205053467045623  1.0000
  O   O4        1.0  0.45533669034068724  0.19756401490792963  0.6310053003374172  1.0000
  F   F1        1.0  0.43864055088344145  0.5859991469688008  0.36546650157606786  1.0000
  F   F2        1.0  0.07727492239958167  0.2546703653681508  0.7461925033650552  1.0000
  F   F3        1.0  0.8303159094920183  0.9499923950605202  0.4505657795463609  1.0000
  F   F4        1.0  0.6454537683067247  0.6406364667754039  0.21382113421949267  1.0000
  F   F5        1.0  0.36777002816296545  0.144273334555578  0.6171427393943869  1.0000
  F   F6        1.0  0.925530505641234  0.9484552408530575  0.5726713039671957  1.0000
  F   F7        1.0  0.5398478824915287  0.22246092742929324  0.7853954247492396  1.0000
  F   F8        1.0  0.05461479815164694  0.8810803384343444  0.7481654089038443  1.0000
  F   F9        1.0  0.5999374714049388  0.9581005466743733  0.35417475758860206  1.0000
  F   F10       1.0  0.7389355768559192  0.45291035399654334  0.06491104945471715  1.0000
  F   F11       1.0  0.44422842823361464  0.9211637697855792  0.7572258894474295  1.0000
  F   F12       1.0  0.9520878484763671  0.7940191669549677  0.854302057859627  1.0000
data_image3
_chemical_formula_structural       Sb2H2O4F12
_chemical_formula_sum              "Sb2 H2 O4 F12"
_cell_length_a       5.174112999999999
_cell_length_b       7.3015345668964695
_cell_length_c       8.134955459169152
_cell_angle_alpha    90.9395314512041
_cell_angle_beta     97.22151606041648
_cell_angle_gamma    91.96796560956827

_space_group_name_H-M_alt    "P 1"
_space_group_IT_number       1

loop_
  _space_group_symop_operation_xyz
  'x, y, z'

loop_
  _atom_site_type_symbol
  _atom_site_label
  _atom_site_symmetry_multiplicity
  _atom_site_fract_x
  _atom_site_fract_y
  _atom_site_fract_z
  _atom_site_occupancy
  Sb  Sb1       1.0  0.3554173832894776  0.7381187512851426  0.3628536951815704  1.0000
  Sb  Sb2       1.0  0.28148528020129504  0.7156512529068948  0.9956948554534222  1.0000
  H   H1        1.0  0.8757404718562611  0.18718045417335816  0.5331101395659061  1.0000
  H   H2        1.0  0.28292986147164356  0.2779777795312839  0.08400866152805975  1.0000
  O   O1        1.0  0.5673670779576128  0.10427299614141816  0.7908384972494105  1.0000
  O   O2        1.0  0.9841261057226802  0.08826714129736501  0.00868934970695534  1.0000
  O   O3        1.0  0.5465151851819883  0.41332948285736393  0.1800702123458109  1.0000
  O   O4        1.0  0.9959037498254446  0.7577614814885063  0.5541244550188367  1.0000
  F   F1        1.0  0.8757433255907472  0.38508678991462375  0.009013169873924198  1.0000
  F   F2        1.0  0.49114857801191647  0.011480298286187463  0.63400411254446  1.0000
  F   F3        1.0  0.5550595267218341  0.12566981143595513  0.1201466893143106  1.0000
  F   F4        1.0  0.04262694479393758  0.6889993762903259  0.9595230285294178  1.0000
  F   F5        1.0  0.5571563159314792  0.6248039783008608  0.9259540504245933  1.0000
  F   F6        1.0  0.09780501958402965  0.8214209953130194  0.835229649098892  1.0000
  F   F7        1.0  0.5832000053666775  0.2007001275953435  0.1602026364494975  1.0000
  F   F8        1.0  0.567097586848945  0.6358691425314191  0.3725317599447351  1.0000
  F   F9        1.0  0.8633956977682828  0.21913558262804145  0.7476918150368874  1.0000
  F   F10       1.0  0.6856688351567755  0.9039971851625523  0.4494126076366456  1.0000
  F   F11       1.0  0.6603835311880175  0.597239213731882  0.5419487481067335  1.0000
  F   F12       1.0  0.0766255347407423  0.17217523705221538  0.6101369372047429  1.0000
data_image4
_chemical_formula_structural       Sb2H2O4F12
_chemical_formula_sum              "Sb2 H2 O4 F12"
_cell_length_a       5.174112999999999
_cell_length_b       7.3015345668964695
_cell_length_c       8.134955459169152
_cell_angle_alpha    90.9395314512041
_cell_angle_beta     97.22151606041648
_cell_angle_gamma    91.96796560956827

_space_group_name_H-M_alt    "P 1"
_space_group_IT_number       1

loop_
  _space_group_symop_operation_xyz
  'x, y, z'

loop_
  _atom_site_type_symbol
  _atom_site_label
  _atom_site_symmetry_multiplicity
  _atom_site_fract_x
  _atom_site_fract_y
  _atom_site_fract_z
  _atom_site_occupancy
  Sb  Sb1       1.0  0.09761054649425205  0.25399579867644206  0.3855263081386511  1.0000
  Sb  Sb2       1.0  0.15061937969833394  0.3776343159100577  0.8786965253384551  1.0000
  H   H1        1.0  0.6206090458381368  0.998492382641416  0.7551903335188399  1.0000
  H   H2        1.0  0.3240508527160273  0.5352304568405089  0.8124150226722122  1.0000
  O   O1        1.0  0.34367411855964747  0.012058602614160918  0.7898323018321598  1.0000
  O   O2        1.0  0.1759239942439308  0.40061271290551304  0.7681841861808607  1.0000
  O   O3        1.0  0.9707742580903869  0.4875239704961132  0.8718373800902555  1.0000
  O   O4        1.0  0.00015022864199920605  0.5120817789975263  0.6560589984004537  1.0000
  F   F1        1.0  0.44549558823700863  0.7819456079998872  0.8565635075574392  1.0000
  F   F2        1.0  0.6528728719449646  0.08189639959800843  0.7499001290302658  1.0000
  F   F3        1.0  0.517507797074586  0.6126200619173687  0.5652759602592141  1.0000
  F   F4        1.0  0.9758225499572291  0.5400057059596293  0.11962665672763251  1.0000
  F   F5        1.0  0.9013838813771144  0.3776383207150502  0.8237701126213608  1.0000
  F   F6        1.0  0.05381527051486046  0.4338146806703662  0.8981856973159665  1.0000
  F   F7        1.0  0.7928927545822262  0.63161367294515  0.8604621693708623  1.0000
  F   F8        1.0  0.12033085249277065  0.28026326455074013  0.4777184077511265  1.0000
  F   F9        1.0  0.9060712820137269  0.752550083119786  0.8776422493101563  1.0000
  F   F10       1.0  0.8790459422880303  0.09212138834755024  0.5986325484312829  1.0000
  F   F11       1.0  0.8935362417660144  0.14646640247519827  0.6328691763794723  1.0000
  F   F12       1.0  0.34473965336292167  0.29651351586335295  0.11587946116401326  1.0000
data_image5
_chemical_formula_structural       Sb2H2O4F12
_chemical_formula_sum              "Sb2 H2 O4 F12"
_cell_length_a       5.174112999999999
_cell_length_b       7.3015345668964695
_cell_length_c       8.134955459169152
_cell_angle_alpha    90.9395314512041
_cell_angle_beta     97.22151606041648
_cell_angle_gamma    91.96796560956827

_space_group_name_H-M_alt    "P 1"
_space_group_IT_number       1

loop_
  _space_group_symop_operation_xyz
  'x, y, z'

loop_
  _atom_site_type_symbol
  _atom_site_label
  _atom_site_symmetry_multiplicity
  _atom_site_fract_x
  _atom_site_fract_y
  _atom_site_fract_z
  _atom_site_occupancy
  Sb  Sb1       1.0  0.44086648187658284  0.5888151100771211  0.8530946382634284  1.0000
  Sb  Sb2       1.0  0.722917997305899  0.05631965224758062  0.38474920970770654  1.0000
  H   H1        1.0  0.9055187970334373  0.36781795068236534  0.18366985217289766  1.0000
  H   H2        1.0  0.026723950690211495  0.3193396962960833  0.07199399637465831  1.0000
  O   O1        1.0  0.2603670014432282  0.018186348768722382  0.6632964254417857  1.0000
  O   O2        1.0  0.46139685187881696  0.1827631738813622  0.6258532482224837  1.0000
  O   O3        1.0  0.041762356464460026  0.53314194118866  0.5627492026469554  1.0000
  O   O4        1.0  0.8330091731142701  0.5816091177002818  0.8640946812747643  1.0000
  F   F1        1.0  0.6216128888581807  0.4086014323129348  0.5823277139315906  1.0000
  F   F2        1.0  0.10827421196972864  0.8937383011852944  0.14579751156452403  1.0000
  F   F3        1.0  0.2490317642394757  0.19819933662961375  0.9004952901873366  1.0000
  F   F4        1.0  0.7046758471260546  0.5837834420890431  0.6925402235938236  1.0000
  F   F5        1.0  0.529800771495502  0.26330682088882895  0.8963961275953807  1.0000
  F   F6        1.0  0.3033113582960141  0.3250109603995952  0.7163040357590944  1.0000
  F   F7        1.0  0.37555331161286176  0.8554318165251971  0.6570646875529746  1.0000
  F   F8        1.0  0.32081527672744414  0.7597484873840585  0.9216867174727668  1.0000
  F   F9        1.0  0.7173202586054686  0.4921173226139217  0.3109363082185155  1.0000
  F   F10       1.0  0.30682026309659705  0.00010813813059940003  0.30012192104550195  1.0000
  F   F11       1.0  0.42043464396010677  0.899138286618836  0.43307492858139085  1.0000
  F   F12       1.0  0.6098718158718839  0.07456479476013556  0.16336940003361633  1.0000
data_image6
_chemical_formula_structural       Sb2H2O4F12
_chemical_formula_sum              "Sb2 H2 O4 F12"
_cell_length_a       5.174112999999999
_cell_length_b       7.3015345668964695
_cell_length_c       8.134955459169152
_cell_angle_alpha    90.9395314512041
_cell_angle_beta     97.22151606041648
_cell_angle_gamma    91.96796560956827

_space_group_name_H-M_alt    "P 1"
_space_group_IT_number       1

loop_
  _space_group_symop_operation_xyz
  'x, y, z'

loop_
  _atom_site_type_symbol
  _atom_site_label
  _atom_site_symmetry_multiplicity
  _atom_site_fract_x
  _atom_site_fract_y
  _atom_site_fract_z
  _atom_site_occupancy
  Sb  Sb1       1.0  0.14669417846516808  0.6690000139606127  0.6352979284638423  1.0000
  Sb  Sb2       1.0  0.3660550680524466  0.8017369968047205  0.7228609809208137  1.0000
  H   H1        1.0  0.6874966897657941  0.9986400433881499  0.9120637127198279  1.0000
  H   H2        1.0  0.497170637754607  0.3087620371079538  0.3168669987353496  1.0000
  O   O1        1.0  0.07241489374791854  0.8904717104742303  0.012094717108084296  1.0000
  O   O2        1.0  0.7983969597844407  0.44481520195199664  0.33252532806727686  1.0000
  O   O3        1.0  0.2869344235950848  0.9035082894988591  0.08557801540791843  1.0000
  O   O4        1.0  0.5860538054353128  0.9149606187975223  0.20946002778327966  1.0000
  F   F1        1.0  0.925754329558913  0.8769110632083539  0.8393711895441811  1.0000
  F   F2        1.0  0.1783286926611254  0.549256448514825  0.13954700768226758  1.0000
  F   F3        1.0  0.510597567521927  0.9421504098638707  0.15226862275630992  1.0000
  F   F4        1.0  0.29843779715156415  0.10427658147818875  0.7229337973403744  1.0000
  F   F5        1.0  0.21030556598270778  0.35313153677998343  0.5883407622236518  1.0000
  F   F6        1.0  0.22391549753774598  0.8476559742757672  0.6619927953479419  1.0000
  F   F7        1.0  0.10011453256402092  0.09976523713521601  0.8764883427566019  1.0000
  F   F8        1.0  0.6768592821827042  0.6288023882298148  0.26387011474071187  1.0000
  F   F9        1.0  0.6900721412166604  0.1634309904256952  0.4101192592388543  1.0000
  F   F10       1.0  0.273723586991764  0.044936548644727736  0.23770113358614253  1.0000
  F   F11       1.0  0.5240054808300556  0.23174352913883922  0.46896723641839344  1.0000
  F   F12       1.0  0.8659663685139094  0.9151394020805128  0.5665642746284902  1.0000
data_image7
_chemical_formula_structural       Sb2H2O4F12
_chemical_formula_sum              "Sb2 H2 O4 F12"
_cell_length_a       5.174112999999999
_cell_length_b       7.3015345668964695
_cell_length_c       8.134955459169152
_cell_angle_alpha    90.9395314512041
_cell_angle_beta     97.22151606041648
_cell_angle_gamma    91.96796560956827

_space_group_name_H-M_alt    "P 1"
_space_group_IT_number       1

loop_
  _space_group_symop_operation_xyz
  'x, y, z'

loop_
  _atom_site_type_symbol
  _atom_site_label
  _atom_site_symmetry_multiplicity
  _atom_site_fract_x
  _atom_site_fract_y
  _atom_site_fract_z
  _atom_site_occupancy
  Sb  Sb1       1.0  0.9031718899168482  0.5398292479367228  0.6600156789936591  1.0000
  Sb  Sb2       1.0  0.42973542467007064  0.5434893987785472  0.7518382408015896  1.0000
  H   H1        1.0  0.9252557880572567  0.5097470907785464  0.31110115064075217  1.0000
  H   H2        1.0  0.24146180423849728  0.06428396779301693  0.24733697170449886  1.0000
  O   O1        1.0  0.14004843692237046  0.28989782502867456  0.08754859723512709  1.0000
  O   O2        1.0  0.6700965689815348  0.31084650094999233  0.0089729559749685  1.0000
  O   O3        1.0  0.6259818567341426  0.2564392688800581  0.4122290624791276  1.0000
  O   O4        1.0  0.42883101522329525  0.3854057916696547  0.821182072189913  1.0000
  F   F1        1.0  0.9180201430376655  0.7822020242138024  0.15883939322520746  1.0000
  F   F2        1.0  0.0653786617986043  0.12762524902791483  0.442267156566686  1.0000
  F   F3        1.0  0.06182986876046925  0.397984888154042  0.28658419014391256  1.0000
  F   F4        1.0  0.4858721041091485  0.9226576962100808  0.7688607985619456  1.0000
  F   F5        1.0  0.04385624067072058  0.00586067955737235  0.6544199621398548  1.0000
  F   F6        1.0  0.6633788481121883  0.7271525928808842  0.9635536815439991  1.0000
  F   F7        1.0  0.9514568195604625  0.6497180258947992  0.264400391777599  1.0000
  F   F8        1.0  0.36644034671917325  0.07065935450373217  0.045700397435211926  1.0000
  F   F9        1.0  0.9159116710579838  0.6759783007000806  0.5792191211185127  1.0000
  F   F10       1.0  0.16227532522725596  0.11924735272441467  0.800866648891315  1.0000
  F   F11       1.0  0.5798005573524279  0.6329697067849338  0.019137010855047265  1.0000
  F   F12       1.0  0.6648574708524393  0.9065393826167565  0.12794694234617054  1.0000
data_image8
_chemical_formula_structural       Sb2H2O4F12
_chemical_formula_sum              "Sb2 H2 O4 F12"
_cell_length_a       5.174112999999999
_cell_length_b       7.3015345668964695
_cell_length_c       8.134955459169152
_cell_angle_alpha    90.9395314512041
_cell_angle_beta     97.22151606041648
_cell_angle_gamma    91.96796560956827

_space_group_name_H-M_alt    "P 1"
_space_group_IT_number       1

loop_
  _space_group_symop_operation_xyz
  'x, y, z'

loop_
  _atom_site_type_symbol
  _atom_site_label
  _atom_site_symmetry_multiplicity
  _atom_site_fract_x
  _atom_site_fract_y
  _atom_site_fract_z
  _atom_site_occupancy
  Sb  Sb1       1.0  0.37814425345277414  0.36446456694829976  0.8198603750061011  1.0000
  Sb  Sb2       1.0  0.32059064614441013  0.29850006805645535  0.6294222784636077  1.0000
  H   H1        1.0  0.548709292030253  0.6285378746979404  0.7028556990553625  1.0000
  H   H2        1.0  0.0662331136627472  0.49501966163461475  0.10346077168651391  1.0000
  O   O1        1.0  0.9907874776151857  0.17860916677091154  0.592035581113123  1.0000
  O   O2        1.0  0.8283516583032906  0.7186021233501378  0.013436236375127919  1.0000
  O   O3        1.0  0.6382759371044813  0.6735188752645627  0.7957721502752975  1.0000
  O   O4        1.0  0.36327703068673145  0.8495626318872382  0.22219441492961778  1.0000
  F   F1        1.0  0.544910791933944  0.01671306686830576  0.5550724277945847  1.0000
  F   F2        1.0  0.3918112699248013  0.40630407814023783  0.5877913538843131  1.0000
  F   F3        1.0  0.4409454416763765  0.7964807279831803  0.23864257034620096  1.0000
  F   F4        1.0  0.4210696434456622  0.7340092430240475  0.8308545854233671  1.0000
  F   F5        1.0  0.36633974102005595  0.41622726371497265  0.224523704330295  1.0000
  F   F6        1.0  0.18756787676829845  0.5643016417088802  0.507589181594085  1.0000
  F   F7        1.0  0.3349664429565564  0.7101791951099585  0.6714203966266723  1.0000
  F   F8        1.0  0.1357543385347526  0.2181218207551865  0.7727460165842785  1.0000
  F   F9        1.0  0.5550236502458574  0.30657161477938644  0.42761188325675903  1.0000
  F   F10       1.0  0.5643783683872243  0.6740810015976422  0.8892528552205476  1.0000
  F   F11       1.0  0.7207635615195613  0.9387479035199249  0.3276352202083217  1.0000
  F   F12       1.0  0.3494860167556908  0.09677324753283756  0.2374857075046748  1.0000
data_image9
_chemical_formula_structural       Sb2H2O4F12
_chemical_formula_sum              "Sb2 H2 O4 F12"
_cell_length_a       5.174112999999999
_cell_length_b       7.3015345668964695
_cell_length_c       8.134955459169152
_cell_angle_alpha    90.9395314512041
_cell_angle_beta     97.22151606041648
_cell_angle_gamma    91.96796560956827

_space_group_name_H-M_alt    "P 1"
_space_group_IT_number       1

loop_
  _space_group_symop_operation_xyz
  'x, y, z'

loop_
  _atom_site_type_symbol
  _atom_site_label
  _atom_site_symmetry_multiplicity
  _atom_site_fract_x
  _atom_site_fract_y
  _atom_site_fract_z
  _atom_site_occupancy
  Sb  Sb1       1.0  0.10012500463926699  0.021262642800138565  0.3008150966197718  1.0000
  Sb  Sb2       1.0  0.6866617585983477  0.6991938875580672  0.5339712059139856  1.0000
  H   H1        1.0  0.320977734249027  0.8065389943367336  0.3981490553705953  1.0000
  H   H2        1.0  0.4519632125084172  0.16550640899686186  0.6275544597447151  1.0000
  O   O1        1.0  0.8204966900520958  0.4266614084917819  0.42375808196266007  1.0000
  O   O2        1.0  0.21373998145281803  0.9609290024964139  0.9180146984945168  1.0000
  O   O3        1.0  0.2966761850111652  0.0400654402183136  0.32768604524608236  1.0000
  O   O4        1.0  0.6718750056770659  0.5593764295554138  0.6954276000396931  1.0000
  F   F1        1.0  0.7532031065202318  0.7091235334664816  0.36469290048989933  1.0000
  F   F2        1.0  0.036638145582401194  0.8717277195319184  0.9307889404044545  1.0000
  F   F3        1.0  0.8796843044874549  0.20545032263373741  0.9722438773460453  1.0000
  F   F4        1.0  0.6568285224784631  0.3506308492360404  0.919099945545895  1.0000
  F   F5        1.0  0.09086309620033717  0.5487478129434749  0.617421227718296  1.0000
  F   F6        1.0  0.45272145507624373  0.8687682313247933  0.8508405954344198  1.0000
  F   F7        1.0  0.2498867231922759  0.4904675397738174  0.9012952954044522  1.0000
  F   F8        1.0  0.1088405216432875  0.957843337651866  0.697573511286464  1.0000
  F   F9        1.0  0.06676812331716064  0.4544851972532342  0.34362886277085636  1.0000
  F   F10       1.0  0.12633781328440818  0.5998329664107587  0.21968689478489978  1.0000
  F   F11       1.0  0.5631367121241055  0.10955167949100542  0.8006828604629845  1.0000
  F   F12       1.0  0.05653564681415446  0.6538370071502868  0.5539927576028276  1.0000
data_image10
_chemical_formula_structural       Sb2H2O4F12
_chemical_formula_sum              "Sb2 H2 O4 F12"
_cell_length_a       5.174112999999999
_cell_length_b       7.3015345668964695
_cell_length_c       8.134955459169152
_cell_angle_alpha    90.9395314512041
_cell_angle_beta     97.22151606041648
_cell_angle_gamma    91.96796560956827

_space_group_name_H-M_alt    "P 1"
_space_group_IT_number       1

loop_
  _space_group_symop_operation_xyz
  'x, y, z'

loop_
  _atom_site_type_symbol
  _atom_site_label
  _atom_site_symmetry_multiplicity
  _atom_site_fract_x
  _atom_site_fract_y
  _atom_site_fract_z
  _atom_site_occupancy
  Sb  Sb1       1.0  0.8881109901303716  0.7437056217240752  0.7842202541069128  1.0000
  Sb  Sb2       1.0  0.1836143667678698  0.8174176379216078  0.3744159199704882  1.0000
  H   H1        1.0  0.2533266396567342  0.9627085365646053  0.5090071896556765  1.0000
  H   H2        1.0  0.18473379460920114  0.6006622752881867  0.166575997354812  1.0000
  O   O1        1.0  0.2279001193151089  0.22646737974719144  0.18723998350924376  1.0000
  O   O2        1.0  0.8084834106266499  0.8698581853241194  0.8426886811794247  1.0000
  O   O3        1.0  0.6762595657637576  0.541636831156211  0.8547871522750938  1.0000
  O   O4        1.0  0.5822591780615767  0.06788907961163204  0.333375691971014  1.0000
  F   F1        1.0  0.13962834545964142  0.05843168651153974  0.047151044997008285  1.0000
  F   F2        1.0  0.7152715766715119  0.6340140924439766  0.1836548602732364  1.0000
  F   F3        1.0  0.011384222831111401  0.26160684597425643  0.015490308003791142  1.0000
  F   F4        1.0  0.9031319088244345  0.9892932372094947  0.38252772940904833  1.0000
  F   F5        1.0  0.06682529153476935  0.29831293493771227  0.03940389043714276  1.0000
  F   F6        1.0  0.2531358375563286  0.2410273426430649  0.1007431150355842  1.0000
  F   F7        1.0  0.6967939336202562  0.2249689804702939  0.0929842710338562  1.0000
  F   F8        1.0  0.39089738352777204  0.7233122079196619  0.6639487346401438  1.0000
  F   F9        1.0  0.2792203900171444  0.9834161560393113  0.7997603537478426  1.0000
  F   F10       1.0  0.20455734872666653  0.037873947723710444  0.09109933968102268  1.0000
  F   F11       1.0  0.08779834141751053  0.58516180176548  0.03707634479360422  1.0000
  F   F12       1.0  0.3640963358338922  0.9642320182611002  0.7854785186209483  1.0000
data_image11
_chemical_formula_structural       Sb2H2O4F12
_chemical_formula_sum              "Sb2 H2 O4 F12"
_cell_length_a       5.174112999999999
_cell_length_b       7.3015345668964695
_cell_length_c       8.134955459169152
_cell_angle_alpha    90.9395314512041
_cell_angle_beta     97.22151606041648
_cell_angle_gamma    91.96796560956827

_space_group_name_H-M_alt    "P 1"
_space_group_IT_number       1

loop_
  _space_group_symop_operation_xyz
  'x, y, z'

loop_
  _atom_site_type_symbol
  _atom_site_label
  _atom_site_symmetry_multiplicity
  _atom_site_fract_x
  _atom_site_fract_y
  _atom_site_fract_z
  _atom_site_occupancy
  Sb  Sb1       1.0  0.6612980935824453  0.10933237439166987  0.3489777263457654  1.0000
  Sb  Sb2       1.0  0.9576215843917453  0.6106564049805456  0.8438890753604937  1.0000
  H   H1        1.0  0.5046634137252113  0.12189014299656264  0.11169753735885024  1.0000
  H   H2        1.0  0.6720645380482893  0.7946953264754484  0.43672047862492036  1.0000
  O   O1        1.0  0.24570475275959325  0.6837363146260031  0.7268792711182073  1.0000
  O   O2        1.0  0.5588749598537106  0.9983774778957013  0.775056825386855  1.0000
  O   O3        1.0  0.5108223956776783  0.4745279725175351  0.07463693160389084  1.0000
  O   O4        1.0  0.21474152802693425  0.7567211848145234  0.6523573658778332  1.0000
  F   F1        1.0  0.8928038374142488  0.8440037960172049  0.03751127739815274  1.0000
  F   F2        1.0  0.7565244214056293  0.766555306079681  0.47179592784959823  1.0000
  F   F3        1.0  0.8929674041282851  0.13888913712276008  0.8622648489345011  1.0000
  F   F4        1.0  0.25692370878823567  0.24464159530907637  0.0013842397020198405  1.0000
  F   F5        1.0  0.2543085436554975  0.5991855445427063  0.07386402520776869  1.0000
  F   F6        1.0  0.5134505269816145  0.09794189326930791  0.10500855217105709  1.0000
  F   F7        1.0  0.4837111540773549  0.2652890889949049  0.02447110456705559  1.0000
  F   F8        1.0  0.9014895775180776  0.37310196162434295  0.5955258419126039  1.0000
  F   F9        1.0  0.47677065624156967  0.30062620231547044  0.10358996542117893  1.0000
  F   F10       1.0  0.36278547369511216  0.5890695439884439  0.7631733765156241  1.0000
  F   F11       1.0  0.46083980865660124  0.375662739360223  0.39850569063128205  1.0000
  F   F12       1.0  0.6718669672118267  0.07985811698745238  0.6189356583927292  1.0000
data_image12
_chemical_formula_structural       Sb2H2O4F12
_chemical_formula_sum              "Sb2 H2 O4 F12"
_cell_length_a       5.174112999999999
_cell_length_b       7.3015345668964695
_cell_length_c       8.134955459169152
_cell_angle_alpha    90.9395314512041
_cell_angle_beta     97.22151606041648
_cell_angle_gamma    91.96796560956827

_space_group_name_H-M_alt    "P 1"
_space_group_IT_number       1

loop_
  _space_group_symop_operation_xyz
  'x, y, z'

loop_
  _atom_site_type_symbol
  _atom_site_label
  _atom_site_symmetry_multiplicity
  _atom_site_fract_x
  _atom_site_fract_y
  _atom_site_fract_z
  _atom_site_occupancy
  Sb  Sb1       1.0  0.8205791908039828  0.1737301933535491  0.7232421937515028  1.0000
  Sb  Sb2       1.0  0.9470198320923373  0.27336692639801186  0.8879212805113639  1.0000
  H   H1        1.0  0.029254951914481353  0.6809611548960675  0.7183984065195546  1.0000
  H   H2        1.0  0.5966129730950342  0.4063740701956249  0.6941971560154343  1.0000
  O   O1        1.0  0.501823374349442  0.1666365255805431  0.10434235034267658  1.0000
  O   O2        1.0  0.9234564533689991  0.3528871489397716  0.8971360831565107  1.0000
  O   O3        1.0  0.8309027480427176  0.5556256567360833  0.1565509140782524  1.0000
  O   O4        1.0  0.6511937393552216  0.33309972536517307  0.4343956104203244  1.0000
  F   F1        1.0  0.6028004529507598  0.538570346267079  0.08203026478076936  1.0000
  F   F2        1.0  0.6060144205257529  0.6129101050028112  0.9973341864824761  1.0000
  F   F3        1.0  0.5700707795986091  0.9461297375441973  0.5673971740761772  1.0000
  F   F4        1.0  0.05186642696207855  0.8013686315680388  0.7084918227046728  1.0000
  F   F5        1.0  0.019798130182607565  0.08048835423687706  0.41119011441975317  1.0000
  F   F6        1.0  0.7091490742168389  0.666421549351071  0.6002379202400334  1.0000
  F   F7        1.0  0.10147036721355107  0.8798147168054129  0.8293534511303733  1.0000
  F   F8        1.0  0.5960377479204908  0.3731264291855041  0.3344128726166673  1.0000
  F   F9        1.0  0.8107789222121937  0.07167896801183815  0.3737700617346036  1.0000
  F   F10       1.0  0.7310804827175161  0.67315854140179  0.2497636660355056  1.0000
  F   F11       1.0  0.9705563776224153  0.9984385253555956  0.8416410940371861  1.0000
  F   F12       1.0  0.5820652094989782  0.34807869463111274  0.49565373991208617  1.0000
data_image13
_chemical_formula_structural       Sb2H2O4F12
_chemical_formula_sum              "Sb2 H2 O4 F12"
_cell_length_a       5.174112999999999
_cell_length_b       7.3015345668964695
_cell_length_c       8.134955459169152
_cell_angle_alpha    90.9395314512041
_cell_angle_beta     97.22151606041648
_cell_angle_gamma    91.96796560956827

_space_group_name_H-M_alt    "P 1"
_space_group_IT_number       1

loop_
  _space_group_symop_operation_xyz
  'x, y, z'

loop_
  _atom_site_type_symbol
  _atom_site_label
  _atom_site_symmetry_multiplicity
  _atom_site_fract_x
  _atom_site_fract_y
  _atom_site_fract_z
  _atom_site_occupancy
  Sb  Sb1       1.0  0.550775542131305  0.732377626667585  0.24242810817668214  1.0000
  Sb  Sb2       1.0  0.19108010319177993  0.43892467542900704  0.421966233105195  1.0000
  H   H1        1.0  0.8989349274052074  0.04025744542013854  0.22798720811260864  1.0000
  H   H2        1.0  0.7955400394275784  0.447016703034933  0.4618699816928711  1.0000
  O   O1        1.0  0.5557248518489359  0.8628874883725075  0.7367480102684567  1.0000
  O   O2        1.0  0.7957922180939931  0.903945311991265  0.8483922701925621  1.0000
  O   O3        1.0  0.3057721061632037  0.8060576526913792  0.010791347012855113  1.0000
  O   O4        1.0  0.35185570281646505  0.8517613057920244  0.47195786261363537  1.0000
  F   F1        1.0  0.29228416836849647  0.021636868863424752  0.05813382377164089  1.0000
  F   F2        1.0  0.4314649219159037  0.6499610333121382  0.10616071121330606  1.0000
  F   F3        1.0  0.38129343223408796  0.1724228906841745  0.798739468768872  1.0000
  F   F4        1.0  0.45912422169931233  0.9711106372560607  0.14904380246298388  1.0000
  F   F5        1.0  0.460450631173444  0.9644740019102755  0.6558025214580994  1.0000
  F   F6        1.0  0.9663677639327943  0.7309905269503361  0.13169482664670795  1.0000
  F   F7        1.0  0.1419445063229432  0.2841616415316821  0.7904544849989179  1.0000
  F   F8        1.0  0.034090327739249915  0.15323381298367167  0.40785394492559135  1.0000
  F   F9        1.0  0.63880080106901  0.1813146260465146  0.8844781980905623  1.0000
  F   F10       1.0  0.029050101846223697  0.48554841418081196  0.6194985555121093  1.0000
  F   F11       1.0  0.46870692653465085  0.08631782709562685  0.5691185414834763  1.0000
  F   F12       1.0  0.47468814106832724  0.8014868020545691  0.5571155345824081  1.0000
data_image14
_chemical_formula_structural       Sb2H2O4F12
_chemical_formula_sum              "Sb2 H2 O4 F12"
_cell_length_a       5.174112999999999
_cell_length_b       7.3015345668964695
_cell_length_c       8.134955459169152
_cell_angle_alpha    90.9395314512041
_cell_angle_beta     97.22151606041648
_cell_angle_gamma    91.96796560956827

_space_group_name_H-M_alt    "P 1"
_space_group_IT_number       1

loop_
  _space_group_symop_operation_xyz
  'x, y, z'

loop_
  _atom_site_type_symbol
  _atom_site_label
  _atom_site_symmetry_multiplicity
  _atom_site_fract_x
  _atom_site_fract_y
  _atom_site_fract_z
  _atom_site_occupancy
  Sb  Sb1       1.0  0.29154211131390184  0.4585079392672924  0.02815319188812282  1.0000
  Sb  Sb2       1.0  0.7327550097215862  0.543935521862295  0.8015358837401436  1.0000
  H   H1        1.0  0.37366141741222236  0.06665336914011277  0.25645010743755847  1.0000
  H   H2        1.0  0.33301249079522677  0.36125354318210157  0.45141843492456246  1.0000
  O   O1        1.0  0.20652172785412404  0.43501880839903606  0.5943036235586163  1.0000
  O   O2        1.0  0.4925989605835639  0.601678985185572  0.6090113979735179  1.0000
  O   O3        1.0  0.7229513569036499  0.402811012318125  0.8121488965989556  1.0000
  O   O4        1.0  0.7742574055009754  0.27046809111197945  0.2192863569871406  1.0000
  F   F1        1.0  0.5173130758776097  0.574362187024235  0.21169889731390867  1.0000
  F   F2        1.0  0.2537616966292262  0.48396150222833967  0.9060435325445724  1.0000
  F   F3        1.0  0.043652916536302655  0.908334672320052  0.7580977168790923  1.0000
  F   F4        1.0  0.5204555323871318  0.8169316146886558  0.6906221683311742  1.0000
  F   F5        1.0  0.24461746852466604  0.5886162834831339  0.06783359317438453  1.0000
  F   F6        1.0  0.0827882764278911  0.6205140052043134  0.2563565415330231  1.0000
  F   F7        1.0  0.7912265565646521  0.9076994290589937  0.5731583502538342  1.0000
  F   F8        1.0  0.7930853824364021  0.9590672105841804  0.8806351668899879  1.0000
  F   F9        1.0  0.6429261895973468  0.5313160970472381  0.3441498404699814  1.0000
  F   F10       1.0  0.8978280524097499  0.12732342834351584  0.34648573830236273  1.0000
  F   F11       1.0  0.19449734636873472  0.1056830741254089  0.043398760908530676  1.0000
  F   F12       1.0  0.4580980059254216  0.5829581465804949  0.1608887835755013  1.0000
data_image15
_chemical_formula_structural       Sb2H2O4F12
_chemical_formula_sum              "Sb2 H2 O4 F12"
_cell_length_a       5.174112999999999
_cell_length_b       7.3015345668964695
_cell_length_c       8.134955459169152
_cell_angle_alpha    90.9395314512041
_cell_angle_beta     97.22151606041648
_cell_angle_gamma    91.96796560956827

_space_group_name_H-M_alt    "P 1"
_space_group_IT_number       1

loop_
  _space_group_symop_operation_xyz
  'x, y, z'

loop_
  _atom_site_type_symbol
  _atom_site_label
  _atom_site_symmetry_multiplicity
  _atom_site_fract_x
  _atom_site_fract_y
  _atom_site_fract_z
  _atom_site_occupancy
  Sb  Sb1       1.0  0.16859246182139032  0.7823509746303898  0.9245199359575054  1.0000
  Sb  Sb2       1.0  0.7656097877588763  0.9958303613893804  0.3161393004229467  1.0000
  H   H1        1.0  0.9392509439203423  0.739701915968908  0.15055148588726297  1.0000
  H   H2        1.0  0.10534309940703679  0.2532694413421268  0.44479206716641784  1.0000
  O   O1        1.0  0.2293754755100963  0.21019662066464662  0.6583254177769504  1.0000
  O   O2        1.0  0.1105646386713488  0.5959803452715278  0.33764381709625013  1.0000
  O   O3        1.0  0.5388057695236057  0.24926663155201823  0.0710127477068454  1.0000
  O   O4        1.0  0.7643300417075807  0.9436434921808541  0.39484178227212396  1.0000
  F   F1        1.0  0.4488893087982433  0.001483134046793566  0.9182719142881979  1.0000
  F   F2        1.0  0.47504586807917804  0.8804101611822261  0.12157019583537476  1.0000
  F   F3        1.0  0.21084374181373278  0.9803516583924647  0.46017096198829677  1.0000
  F   F4        1.0  0.6266802137397463  0.9889769852052268  0.5581657088478096  1.0000
  F   F5        1.0  0.7710244935005903  0.6978392959681514  0.045768123478865164  1.0000
  F   F6        1.0  0.5908909162390046  0.22168311930727214  0.6082301806891337  1.0000
  F   F7        1.0  0.5661217392043909  0.7748424370074645  0.7320996140624629  1.0000
  F   F8        1.0  0.659649207140319  0.750816222091089  0.24782553827390075  1.0000
  F   F9        1.0  0.5089927706867456  0.9662067660265166  0.3527213148718147  1.0000
  F   F10       1.0  0.5464109750537318  0.6993464622100873  0.2617436346736213  1.0000
  F   F11       1.0  0.8250099498254713  0.7513086326907796  0.7262301931677939  1.0000
  F   F12       1.0  0.04839247559721116  0.9378198265476385  0.3055222528928425  1.0000
data_image16
_chemical_formula_structural       Sb2H2O4F12
_chemical_formula_sum              "Sb2 H2 O4 F12"
_cell_length_a       5.174112999999999
_cell_length_b       7.3015345668964695
_cell_length_c       8.134955459169152
_cell_angle_alpha    90.9395314512041
_cell_angle_beta     97.22151606041648
_cell_angle_gamma    91.96796560956827

_space_group_name_H-M_alt    "P 1"
_space_group_IT_number       1

loop_
  _space_group_symop_operation_xyz
  'x, y, z'

loop_
  _atom_site_type_symbol
  _atom_site_label
  _atom_site_symmetry_multiplicity
  _atom_site_fract_x
  _atom_site_fract_y
  _atom_site_fract_z
  _atom_site_occupancy
  Sb  Sb1       1.0  0.220990037338197  0.9864958007310634  0.8605295828165254  1.0000
  Sb  Sb2       1.0  0.6297920116230671  0.3045737161155557  0.17961124289649888  1.0000
  H   H1        1.0  0.3680248941236641  0.9174610464106081  0.7635961381020024  1.0000
  H   H2        1.0  0.4552779439545702  0.8690031045516662  0.45529839015216567  1.0000
  O   O1        1.0  0.11783940417535632  0.3290274236787809  0.12627989148586494  1.0000
  O   O2        1.0  0.3632224662869703  0.800770091911545  0.8330583558054059  1.0000
  O   O3        1.0  0.1958196690538898  0.961155842494918  0.8214723481796682  1.0000
  O   O4        1.0  0.9136707365178154  0.14806059056718368  0.6973653886634565  1.0000
  F   F1        1.0  0.11381769792933483  0.24067491143432562  0.3836048431148811  1.0000
  F   F2        1.0  0.9988597781630233  0.8573391640020418  0.7775940583596821  1.0000
  F   F3        1.0  0.36054089876233775  0.5166991982005129  0.8614660104785798  1.0000
  F   F4        1.0  0.13131810574850533  0.04236616579510155  0.3261516282800585  1.0000
  F   F5        1.0  0.1780897961652954  0.1731629462192359  0.5945079550028822  1.0000
  F   F6        1.0  0.5402246420853771  0.21998005670320708  0.15361588972155005  1.0000
  F   F7        1.0  0.28323856205679476  0.911520289388136  0.8561402788377563  1.0000
  F   F8        1.0  0.30895592080196366  0.23902112928772112  0.7408393255900592  1.0000
  F   F9        1.0  0.780259233986726  0.18764772867416468  0.7891888383619516  1.0000
  F   F10       1.0  0.10397229115915252  0.5007578305157949  0.06080180765638943  1.0000
  F   F11       1.0  0.043362008640542626  0.19225706749784877  0.5989952915169852  1.0000
  F   F12       1.0  0.5612191379186697  0.22710906474821968  0.5951824729563668  1.0000
data_image17
_chemical_formula_structural       Sb2H2O4F12
_chemical_formula_sum              "Sb2 H2 O4 F12"
_cell_length_a       5.174112999999999
_cell_length_b       7.3015345668964695
_cell_length_c       8.134955459169152
_cell_angle_alpha    90.9395314512041
_cell_angle_beta     97.22151606041648
_cell_angle_gamma    91.96796560956827

_space_group_name_H-M_alt    "P 1"
_space_group_IT_number       1

loop_
  _space_group_symop_operation_xyz
  'x, y, z'

loop_
  _atom_site_type_symbol
  _atom_site_label
  _atom_site_symmetry_multiplicity
  _atom_site_fract_x
  _atom_site_fract_y
  _atom_site_fract_z
  _atom_site_occupancy
  Sb  Sb1       1.0  0.6107278026975109  0.7146549152603257  0.14654111479467247  1.0000
  Sb  Sb2       1.0  0.4111654205080413  0.32313432216324145  0.8781032415936352  1.0000
  H   H1        1.0  0.8490811954907258  0.7589825107861543  0.38462344161234796  1.0000
  H   H2        1.0  0.21934566252457444  0.4781639008433558  0.9660364455776289  1.0000
  O   O1        1.0  0.43424634637540294  0.3632240726838063  0.36833949559058965  1.0000
  O   O2        1.0  0.3182612189266365  0.6589831918972777  0.20066890237649204  1.0000
  O   O3        1.0  0.5186404660344124  0.8387327351520071  0.7501898697810248  1.0000
  O   O4        1.0  0.8474324893686571  0.4751412206678651  0.8567285161298059  1.0000
  F   F1        1.0  0.6102926289167954  0.9209205103325075  0.9945113320209202  1.0000
  F   F2        1.0  0.022763187531381845  0.5235463230201276  0.03328900686028646  1.0000
  F   F3        1.0  0.22881844160747278  0.7485464442615921  0.8463355653584586  1.0000
  F   F4        1.0  0.7769947339111241  0.9135137972334633  0.35763266996946186  1.0000
  F   F5        1.0  0.037108506345248315  0.9680890701565659  0.7286289535522883  1.0000
  F   F6        1.0  0.09483520215144381  0.8622929480334278  0.2719576121889986  1.0000
  F   F7        1.0  0.5865693033410935  0.3188113581672951  0.9589906082712787  1.0000
  F   F8        1.0  0.4480731512303464  0.06035174043790903  0.84181012888439  1.0000
  F   F9        1.0  0.7917683830455644  0.94680435551345  0.10736820982674544  1.0000
  F   F10       1.0  0.4797178024164168  0.4162266155999532  0.7968827324802987  1.0000
  F   F11       1.0  0.8048641544010025  0.2527534513210412  0.4704158044023643  1.0000
  F   F12       1.0  0.4011934659356484  0.26718892354983836  0.055400851008016616  1.0000
data_image18
_chemical_formula_structural       Sb2H2O4F12
_chemical_formula_sum              "Sb2 H2 O4 F12"
_cell_length_a       5.174112999999999
_cell_length_b       7.3015345668964695
_cell_length_c       8.134955459169152
_cell_angle_alpha    90.9395314512041
_cell_angle_beta     97.22151606041648
_cell_angle_gamma    91.96796560956827

_space_group_name_H-M_alt    "P 1"
_space_group_IT_number       1

loop_
  _space_group_symop_operation_xyz
  'x, y, z'

loop_
  _atom_site_type_symbol
  _atom_site_label
  _atom_site_symmetry_multiplicity
  _atom_site_fract_x
  _atom_site_fract_y
  _atom_site_fract_z
  _atom_site_occupancy
  Sb  Sb1       1.0  0.7927334058113047  0.0625557939929422  0.4969288110587513  1.0000
  Sb  Sb2       1.0  0.5754165346370428  0.41703667247929843  0.036707402987303794  1.0000
  H   H1        1.0  0.13640539934567641  0.27334361655812245  0.24898601724999025  1.0000
  H   H2        1.0  0.052488421206362545  0.4055507274897536  0.6663036737154471  1.0000
  O   O1        1.0  0.524019835936997  0.16011144029471325  0.27820570609355855  1.0000
  O   O2        1.0  0.20097869879100472  0.9541981425136328  0.05025077493337449  1.0000
  O   O3        1.0  0.05125996982678771  0.1743783489073394  0.20105831557884812  1.0000
  O   O4        1.0  0.8759414624873898  0.9536919494275935  0.4338977580482606  1.0000
  F   F1        1.0  0.5141329120961018  0.9734847469735541  0.9520567504841893  1.0000
  F   F2        1.0  0.3380195515783271  0.23775028349336935  0.20765615552954841  1.0000
  F   F3        1.0  0.7745392765195902  0.6079666508812807  0.9538606518322013  1.0000
  F   F4        1.0  0.2751855649985373  0.3575175329351623  0.13363859683158807  1.0000
  F   F5        1.0  0.749490789938136  0.6930674923751212  0.6750662680660753  1.0000
  F   F6        1.0  0.32780006813118234  0.2609691197867505  0.36988922898308374  1.0000
  F   F7        1.0  0.32463669943535933  0.2486066064084298  0.5899034488230654  1.0000
  F   F8        1.0  0.6334354695281945  0.46604871417366667  0.6277064181631431  1.0000
  F   F9        1.0  0.9336464211082784  0.7960535211204842  0.448072413720638  1.0000
  F   F10       1.0  0.9987603569898056  0.5435681488706905  0.4632460092216206  1.0000
  F   F11       1.0  0.1353380677610403  0.5671101158113743  0.36678185270102404  1.0000
  F   F12       1.0  0.09313378698425367  0.08159720399271464  0.2970091872557532  1.0000
data_image19
_chemical_formula_structural       Sb2H2O4F12
_chemical_formula_sum              "Sb2 H2 O4 F12"
_cell_length_a       5.174112999999999
_cell_length_b       7.3015345668964695
_cell_length_c       8.134955459169152
_cell_angle_alpha    90.9395314512041
_cell_angle_beta     97.22151606041648
_cell_angle_gamma    91.96796560956827

_space_group_name_H-M_alt    "P 1"
_space_group_IT_number       1

loop_
  _space_group_symop_operation_xyz
  'x, y, z'

loop_
  _atom_site_type_symbol
  _atom_site_label
  _atom_site_symmetry_multiplicity
  _atom_site_fract_x
  _atom_site_fract_y
  _atom_site_fract_z
  _atom_site_occupancy
  Sb  Sb1       1.0  0.17092224937550782  0.1182319413201185  0.5513563251151936  1.0000
  Sb  Sb2       1.0  0.6958014488627668  0.10791158724168781  0.0036847393203061074  1.0000
  H   H1        1.0  0.37423012124054367  0.7120311563485302  0.009978062298614532  1.0000
  H   H2        1.0  0.3977055256254971  0.4970351268493687  0.7492853236035444  1.0000
  O   O1        1.0  0.13682143477126374  0.2450933067702863  0.8706697636303034  1.0000
  O   O2        1.0  0.62183156577521  0.25543882441706955  0.6143998031329829  1.0000
  O   O3        1.0  0.9421047999057919  0.7406234247755492  0.19981571013340726  1.0000
  O   O4        1.0  0.4896495948123629  0.19016704737441614  0.20428451000407222  1.0000
  F   F1        1.0  0.706523447901418  0.4737958915065974  0.7173987376995683  1.0000
  F   F2        1.0  0.7749238214892102  0.2968121975136455  0.8939929594271234  1.0000
  F   F3        1.0  0.5353194249992157  0.34082616926389164  0.751016534997234  1.0000
  F   F4        1.0  0.5163707359170076  0.9907129410712514  0.3170733868901152  1.0000
  F   F5        1.0  0.47378584898251574  0.9464149530467694  0.352397215048768  1.0000
  F   F6        1.0  0.5157681972486898  0.8173023976414697  0.052048797777388245  1.0000
  F   F7        1.0  0.13341326516820118  0.24262391213778756  0.2589831929963111  1.0000
  F   F8        1.0  0.8959581785020418  0.8388651242275955  0.15142366930376738  1.0000
  F   F9        1.0  0.3727912546310108  0.3394532240090484  0.2660436126870991  1.0000
  F   F10       1.0  0.7470817661451292  0.8080566852222546  0.9026661630668968  1.0000
  F   F11       1.0  0.5871528120333096  0.9964326321933186  0.3633509221563145  1.0000
  F   F12       1.0  0.5223676518071443  0.8066904397273902  0.7650559039029758  1.0000
data_image20
_chemical_formula_structural       Sb2H2O4F12
_chemical_formula_sum              "Sb2 H2 O4 F12"
_cell_length_a       5.174112999999999
_cell_length_b       7.3015345668964695
_cell_length_c       8.134955459169152
_cell_angle_alpha    90.9395314512041
_cell_angle_beta     97.22151606041648
_cell_angle_gamma    91.96796560956827

_space_group_name_H-M_alt    "P 1"
_space_group_IT_number       1

loop_
  _space_group_symop_operation_xyz
  'x, y, z'

loop_
  _atom_site_type_symbol
  _atom_site_label
  _atom_site_symmetry_multiplicity
  _atom_site_fract_x
  _atom_site_fract_y
  _atom_site_fract_z
  _atom_site_occupancy
  Sb  Sb1       1.0  0.7157478932658705  0.416718279106135  0.20237730685039423  1.0000
  Sb  Sb2       1.0  0.9824135676863079  0.07945099740754813  0.8463935081672389  1.0000
  H   H1        1.0  0.016977948682324495  0.9551209402416134  0.010302985494490713  1.0000
  H   H2        1.0  0.900013946229592  0.5694683170222561  0.607029463048093  1.0000
  O   O1        1.0  0.33809213380664005  0.8881842287592008  0.2583353398104009  1.0000
  O   O2        1.0  0.3347934137855191  0.1831081885175081  0.5356119387142826  1.0000
  O   O3        1.0  0.8758810528088361  0.4575672013597796  0.23184348590439186  1.0000
  O   O4        1.0  0.7798337361164158  0.37096807290799916  0.13068307188223116  1.0000
  F   F1        1.0  0.5850150920632586  0.712362316204235  0.9218888389568747  1.0000
  F   F2        1.0  0.2111537892051274  0.39241449470137013  0.024933378961577546  1.0000
  F   F3        1.0  0.6619070932583782  0.44043630894339003  0.8213231716044902  1.0000
  F   F4        1.0  0.7903165791067295  0.689011299829815  0.22418125375406817  1.0000
  F   F5        1.0  0.6266821844183141  0.20390121573291253  0.3196829947955848  1.0000
  F   F6        1.0  0.045758742722682655  0.5653410583763616  0.2426176743756514  1.0000
  F   F7        1.0  0.09661072371818591  0.0021467204423970543  0.6235527920989625  1.0000
  F   F8        1.0  0.9744926117127761  0.3157920621233643  0.8525536645902321  1.0000
  F   F9        1.0  0.015761247123009525  0.8309171014261665  0.9258088536944342  1.0000
  F   F10       1.0  0.8240337669849396  0.8677134089575702  0.4893235314884805  1.0000
  F   F11       1.0  0.08430562894500326  0.8446729031093128  0.779161249367462  1.0000
  F   F12       1.0  0.11541655764449388  0.2361601873562904  0.4428492698207265  1.0000
data_image21
_chemical_formula_structural       Sb2H2O4F12
_chemical_formula_sum              "Sb2 H2 O4 F12"
_cell_length_a       5.174112999999999
_cell_length_b       7.3015345668964695
_cell_length_c       8.134955459169152
_cell_angle_alpha    90.9395314512041
_cell_angle_beta     97.22151606041648
_cell_angle_gamma    91.96796560956827

_space_group_name_H-M_alt    "P 1"
_space_group_IT_number       1

loop_
  _space_group_symop_operation_xyz
  'x, y, z'

loop_
  _atom_site_type_symbol
  _atom_site_label
  _atom_site_symmetry_multiplicity
  _atom_site_fract_x
  _atom_site_fract_y
  _atom_site_fract_z
  _atom_site_occupancy
  Sb  Sb1       1.0  0.22266447342735773  0.7188112203657511  0.7879066382738529  1.0000
  Sb  Sb2       1.0  0.9114056405451265  0.38056272462563356  0.8711785441710163  1.0000
  H   H1        1.0  0.5078907575261837  0.3688085563335335  0.5022190807503648  1.0000
  H   H2        1.0  0.17866089544259012  0.42688419495971175  0.5488369455561042  1.0000
  O   O1        1.0  0.8530867537265294  0.2896107325104822  0.4572603255201102  1.0000
  O   O2        1.0  0.3467222773761023  0.6656995682424167  0.8957931561890291  1.0000
  O   O3        1.0  0.3553588923532516  0.36231597074947786  0.12904822372365743  1.0000
  O   O4        1.0  0.9119670043728547  0.23876452932017855  0.97202666082012  1.0000
  F   F1        1.0  0.21940121758234454  0.8063661932974355  0.5671805441488686  1.0000
  F   F2        1.0  0.41303131805034354  0.5000275894271908  0.7812089863436995  1.0000
  F   F3        1.0  0.36169650513147644  0.8936695424054051  0.09026995475596777  1.0000
  F   F4        1.0  0.4320044163323473  0.8881797875001212  0.9008658304810524  1.0000
  F   F5        1.0  0.5549814112455351  0.9467935446300544  0.3915792876687192  1.0000
  F   F6        1.0  0.16727353568421677  0.24779640911583556  0.6201056506833993  1.0000
  F   F7        1.0  0.057641871135274414  0.08092774775286671  0.6195229412141998  1.0000
  F   F8        1.0  0.09244394663255662  0.029675661426153965  0.330915639991872  1.0000
  F   F9        1.0  0.8728004005097318  0.6908479867706774  0.9001769909955328  1.0000
  F   F10       1.0  0.6269129652209813  0.1520944795483956  0.46693114208392217  1.0000
  F   F11       1.0  0.47178550968237687  0.35632135290143196  0.8726087194900174  1.0000
  F   F12       1.0  0.26362122017599177  0.7791683129762532  0.6123913535120664  1.0000
data_image22
_chemical_formula_structural       Sb2H2O4F12
_chemical_formula_sum              "Sb2 H2 O4 F12"
_cell_length_a       5.174112999999999
_cell_length_b       7.3015345668964695
_cell_length_c       8.134955459169152
_cell_angle_alpha    90.9395314512041
_cell_angle_beta     97.22151606041648
_cell_angle_gamma    91.96796560956827

_space_group_name_H-M_alt    "P 1"
_space_group_IT_number       1

loop_
  _space_group_symop_operation_xyz
  'x, y, z'

loop_
  _atom_site_type_symbol
  _atom_site_label
  _atom_site_symmetry_multiplicity
  _atom_site_fract_x
  _atom_site_fract_y
  _atom_site_fract_z
  _atom_site_occupancy
  Sb  Sb1       1.0  0.705428976175881  0.9416325708807562  0.7077258319040993  1.0000
  Sb  Sb2       1.0  0.21252990551874973  0.164301369455643  0.6778772153625141  1.0000
  H   H1        1.0  0.4455893637641566  0.8966760834446177  0.670083156961482  1.0000
  H   H2        1.0  0.8755192852113396  0.6243384380359203  0.26837584318127483  1.0000
  O   O1        1.0  0.8803199615867925  0.40098918911098735  0.10749202704300842  1.0000
  O   O2        1.0  0.036360011727083474  0.6502632818883285  0.35001678521803115  1.0000
  O   O3        1.0  0.747076052124612  0.05239127090317197  0.8292581213754602  1.0000
  O   O4        1.0  0.7964493679173756  0.04940393636934459  0.9814449575824256  1.0000
  F   F1        1.0  0.4967432447083411  0.288788609293988  0.15523036992817651  1.0000
  F   F2        1.0  0.9628700630855747  0.06576146121369675  0.9322481703202357  1.0000
  F   F3        1.0  0.47148827214186895  0.8330381537962239  0.8656531494480078  1.0000
  F   F4        1.0  0.2920356770628132  0.17975500876491424  0.3622378028812818  1.0000
  F   F5        1.0  0.19162481163220946  0.16676190624275478  0.7290914905097452  1.0000
  F   F6        1.0  0.46055090986192226  0.7643569271458546  0.9748224487993866  1.0000
  F   F7        1.0  0.9307514259526215  0.20038428940824815  0.7378445540684879  1.0000
  F   F8        1.0  0.487370258779265  0.9837160247479915  0.8651754027232528  1.0000
  F   F9        1.0  0.18266889126971364  0.6283920818677871  0.4727174182826275  1.0000
  F   F10       1.0  0.602057030708238  0.4458326509247854  0.7977058983415191  1.0000
  F   F11       1.0  0.2896014938596636  0.42048285419878084  0.777047894656107  1.0000
  F   F12       1.0  0.4151943599281367  0.8436304601200391  0.20748505053052213  1.0000
data_image23
_chemical_formula_structural       Sb2H2O4F12
_chemical_formula_sum              "Sb2 H2 O4 F12"
_cell_length_a       5.174112999999999
_cell_length_b       7.3015345668964695
_cell_length_c       8.134955459169152
_cell_angle_alpha    90.9395314512041
_cell_angle_beta     97.22151606041648
_cell_angle_gamma    91.96796560956827

_space_group_name_H-M_alt    "P 1"
_space_group_IT_number       1

loop_
  _space_group_symop_operation_xyz
  'x, y, z'

loop_
  _atom_site_type_symbol
  _atom_site_label
  _atom_site_symmetry_multiplicity
  _atom_site_fract_x
  _atom_site_fract_y
  _atom_site_fract_z
  _atom_site_occupancy
  Sb  Sb1       1.0  0.5033418216098653  0.25601271252162405  0.21761164677445777  1.0000
  Sb  Sb2       1.0  0.9034294446937565  0.6423360024491558  0.8938528237781611  1.0000
  H   H1        1.0  0.2088364105547953  0.9261090933723608  0.13272456947015598  1.0000
  H   H2        1.0  0.20329247694462538  0.9021696683776099  0.2703741944860667  1.0000
  O   O1        1.0  0.04901993231760571  0.8974542898431537  0.6198386118712733  1.0000
  O   O2        1.0  0.18544577120337635  0.43671910715056583  0.7306469965697033  1.0000
  O   O3        1.0  0.5625983576755971  0.4948275677015772  0.522760845895391  1.0000
  O   O4        1.0  0.9578702300786972  0.7488531048293225  0.1002312879099918  1.0000
  F   F1        1.0  0.0026189194179551123  0.21669542980089318  0.5762331098994764  1.0000
  F   F2        1.0  0.7108554868027568  0.6038431955239503  0.04226959303196054  1.0000
  F   F3        1.0  0.406777083488123  0.4952700401117909  0.7395766883273609  1.0000
  F   F4        1.0  0.7591127044288442  0.9464829989883583  0.2581188147305511  1.0000
  F   F5        1.0  0.4051430003310088  0.48101273425709223  0.31480715706493356  1.0000
  F   F6        1.0  0.9907747645047493  0.38277427341381554  0.9567659943422768  1.0000
  F   F7        1.0  0.3160494798567015  0.19042955522672855  0.45394979755383247  1.0000
  F   F8        1.0  0.013966371188871562  0.85332967168506  0.28049063542857766  1.0000
  F   F9        1.0  0.12191764140152372  0.3064749523327919  0.08662654590625607  1.0000
  F   F10       1.0  0.6897978801098361  0.17679286849306663  0.8311485706835811  1.0000
  F   F11       1.0  0.3294183585821884  0.7136153758992805  0.6046226298421971  1.0000
  F   F12       1.0  0.6907112496119225  0.4347687502158806  0.3780319270736072  1.0000
data_image24
_chemical_formula_structural       Sb2H2O4F12
_chemical_formula_sum              "Sb2 H2 O4 F12"
_cell_length_a       5.174112999999999
_cell_length_b       7.3015345668964695
_cell_length_c       8.134955459169152
_cell_angle_alpha    90.9395314512041
_cell_angle_beta     97.22151606041648
_cell_angle_gamma    91.96796560956827

_space_group_name_H-M_alt    "P 1"
_space_group_IT_number       1

loop_
  _space_group_symop_operation_xyz
  'x, y, z'

loop_
  _atom_site_type_symbol
  _atom_site_label
  _atom_site_symmetry_multiplicity
  _atom_site_fract_x
  _atom_site_fract_y
  _atom_site_fract_z
  _atom_site_occupancy
  Sb  Sb1       1.0  0.7635361754842052  0.4212131921740365  0.9296788354404271  1.0000
  Sb  Sb2       1.0  0.2694532600216917  0.12688415722368518  0.8376351513948066  1.0000
  H   H1        1.0  0.20791158833890222  0.11170755261264276  0.2714866980095394  1.0000
  H   H2        1.0  0.8913670156616718  0.42317870346596465  0.12400563259143382  1.0000
  O   O1        1.0  0.8565856172135682  0.6662641799412086  0.16321541289380548  1.0000
  O   O2        1.0  0.3988269655383192  0.4962442936957814  0.6134388916834723  1.0000
  O   O3        1.0  0.9370375456055626  0.06748010519368108  0.18497584096621722  1.0000
  O   O4        1.0  0.4776146367948968  0.18426345128682442  0.7915223829259048  1.0000
  F   F1        1.0  0.6225026862020968  0.012640620014281012  0.6527302666399919  1.0000
  F   F2        1.0  0.24939745213487186  0.8240776834063581  0.7153687302452454  1.0000
  F   F3        1.0  0.011614370938332286  0.4638972365282825  0.7780654969865282  1.0000
  F   F4        1.0  0.8900039421860129  0.7693828964984277  0.4904758384800516  1.0000
  F   F5        1.0  0.1472586123709334  0.8922444475174416  0.9848882848164067  1.0000
  F   F6        1.0  0.42977736110333353  0.35031672266632086  0.04797089743078686  1.0000
  F   F7        1.0  0.6634442287131606  0.030674216764509765  0.6983836897761648  1.0000
  F   F8        1.0  0.33269495237618685  0.30597667404072126  0.5369995081564412  1.0000
  F   F9        1.0  0.5862633625802118  0.8831593574213912  0.10006176055139804  1.0000
  F   F10       1.0  0.19278914915867063  0.4282303091840731  0.8960155126187601  1.0000
  F   F11       1.0  0.22848036320647225  0.009099274894765585  0.1674283204083622  1.0000
  F   F12       1.0  0.7824332025338663  0.5472878082073294  0.1913550092431251  1.0000
data_image25
_chemical_formula_structural       Sb2H2O4F12
_chemical_formula_sum              "Sb2 H2 O4 F12"
_cell_length_a       5.174112999999999
_cell_length_b       7.3015345668964695
_cell_length_c       8.134955459169152
_cell_angle_alpha    90.9395314512041
_cell_angle_beta     97.22151606041648
_cell_angle_gamma    91.96796560956827

_space_group_name_H-M_alt    "P 1"
_space_group_IT_number       1

loop_
  _space_group_symop_operation_xyz
  'x, y, z'

loop_
  _atom_site_type_symbol
  _atom_site_label
  _atom_site_symmetry_multiplicity
  _atom_site_fract_x
  _atom_site_fract_y
  _atom_site_fract_z
  _atom_site_occupancy
  Sb  Sb1       1.0  0.271830629733131  0.4842541879734199  0.48766116196929943  1.0000
  Sb  Sb2       1.0  0.3810621595257544  0.371885558066424  0.8598360409951056  1.0000
  H   H1        1.0  0.5788806019263575  0.4899385365424678  0.44149832951370627  1.0000
  H   H2        1.0  0.5022123113740236  0.908438632832258  0.5894814027706161  1.0000
  O   O1        1.0  0.46748108072642935  0.28554164845263585  0.6672959348816221  1.0000
  O   O2        1.0  0.32916164048947394  0.014447127236053348  0.28734325464756694  1.0000
  O   O3        1.0  0.19124981516506523  0.9371462182607502  0.9970261357375421  1.0000
  O   O4        1.0  0.8127443334378768  0.602854525874136  0.9852446648328623  1.0000
  F   F1        1.0  0.39288632098032394  0.7102846881607547  0.673180801091803  1.0000
  F   F2        1.0  0.19601783210237045  0.18420499275816837  0.4497272530134069  1.0000
  F   F3        1.0  0.032509484201000305  0.9514257738774177  0.6357026044552185  1.0000
  F   F4        1.0  0.5219306574435905  0.566134655586211  0.3534996222006157  1.0000
  F   F5        1.0  0.3657044995488832  0.14670576727075968  0.1714263935064082  1.0000
  F   F6        1.0  0.26635763404192403  0.3721752424171427  0.14372390019707382  1.0000
  F   F7        1.0  0.24620084942398535  0.049929787370956547  0.17190919550830586  1.0000
  F   F8        1.0  0.370406057452783  0.18127160586300306  0.09696545358747244  1.0000
  F   F9        1.0  0.7211163457832299  0.15720436470292043  0.3161933761803084  1.0000
  F   F10       1.0  0.34919097486999817  0.10186232465639478  0.5702323579025688  1.0000
  F   F11       1.0  0.3410053856059676  0.5286838030988292  0.6183839548430115  1.0000
  F   F12       1.0  0.06703905237372965  0.5945877368940273  0.487796122659347  1.0000
data_image26
_chemical_formula_structural       Sb2H2O4F12
_chemical_formula_sum              "Sb2 H2 O4 F12"
_cell_length_a       5.174112999999999
_cell_length_b       7.3015345668964695
_cell_length_c       8.134955459169152
_cell_angle_alpha    90.9395314512041
_cell_angle_beta     97.22151606041648
_cell_angle_gamma    91.96796560956827

_space_group_name_H-M_alt    "P 1"
_space_group_IT_number       1

loop_
  _space_group_symop_operation_xyz
  'x, y, z'

loop_
  _atom_site_type_symbol
  _atom_site_label
  _atom_site_symmetry_multiplicity
  _atom_site_fract_x
  _atom_site_fract_y
  _atom_site_fract_z
  _atom_site_occupancy
  Sb  Sb1       1.0  0.30726376477468875  0.9268654306433746  0.869223828354734  1.0000
  Sb  Sb2       1.0  0.1308934359185514  0.5904399972205283  0.3055003936360663  1.0000
  H   H1        1.0  0.15745156223420054  0.7871889119778643  0.22658077371306717  1.0000
  H   H2        1.0  0.25585767650045455  0.06459762141457759  0.2531497864983976  1.0000
  O   O1        1.0  0.35424121336836834  0.5398122259430238  0.8397999900207651  1.0000
  O   O2        1.0  0.5274264457693789  0.6863820746075362  0.4110602018336067  1.0000
  O   O3        1.0  0.3130546899046749  0.44308672229817603  0.013882223895052448  1.0000
  O   O4        1.0  0.9395238280703779  0.69495045079384  0.1480260632415593  1.0000
  F   F1        1.0  0.017024012384354137  0.9308911190310027  0.524213115695602  1.0000
  F   F2        1.0  0.330466990446439  0.6853901841022889  0.7493759829358169  1.0000
  F   F3        1.0  0.9611688022960152  0.05782489704870386  0.9248009636066854  1.0000
  F   F4        1.0  0.7407602171588223  0.5799410729596275  0.9370337220025249  1.0000
  F   F5        1.0  0.5849920347391162  0.007596893890877254  0.2548400912346551  1.0000
  F   F6        1.0  0.45343548100208864  0.6252875764621422  0.6816243233479327  1.0000
  F   F7        1.0  0.8794704893552989  0.7537872553367606  0.5651976303388437  1.0000
  F   F8        1.0  0.4351398485014215  0.12488290556575521  0.034777881228365004  1.0000
  F   F9        1.0  0.635964112036163  0.6496544698238722  0.08628852470428683  1.0000
  F   F10       1.0  0.2380575291281275  0.8983882219690713  0.15494396235590102  1.0000
  F   F11       1.0  0.7191858394216979  0.8875793981871993  0.0035325829121575225  1.0000
  F   F12       1.0  0.608317689227988  0.18627637818281073  0.956160377303604  1.0000
data_image27
_chemical_formula_structural       Sb2H2O4F12
_chemical_formula_sum              "Sb2 H2 O4 F12"
_cell_length_a       5.174112999999999
_cell_length_b       7.3015345668964695
_cell_length_c       8.134955459169152
_cell_angle_alpha    90.9395314512041
_cell_angle_beta     97.22151606041648
_cell_angle_gamma    91.96796560956827

_space_group_name_H-M_alt    "P 1"
_space_group_IT_number       1

loop_
  _space_group_symop_operation_xyz
  'x, y, z'

loop_
  _atom_site_type_symbol
  _atom_site_label
  _atom_site_symmetry_multiplicity
  _atom_site_fract_x
  _atom_site_fract_y
  _atom_site_fract_z
  _atom_site_occupancy
  Sb  Sb1       1.0  0.10692188527582402  0.9127383343839028  0.631815192537033  1.0000
  Sb  Sb2       1.0  0.7340177095393301  0.8079179724591086  0.0640826605631446  1.0000
  H   H1        1.0  0.5288877959974343  0.5248811848377954  0.2785211055306718  1.0000
  H   H2        1.0  0.3062212816439569  0.8051472678635037  0.4302775217220187  1.0000
  O   O1        1.0  0.1851306922690128  0.65675963954709  0.17750869161773153  1.0000
  O   O2        1.0  0.5947494702995755  0.739209486026084  0.6083316293952521  1.0000
  O   O3        1.0  0.7700319946743548  0.8035109269112581  0.9366021689202171  1.0000
  O   O4        1.0  0.6619728733203374  0.3012546912650578  0.3469059127055516  1.0000
  F   F1        1.0  0.6065566904144362  0.5364282065129373  0.6381483791956271  1.0000
  F   F2        1.0  0.2477653045207262  0.33648132167581934  0.9680351769329718  1.0000
  F   F3        1.0  0.07709401380998315  0.954944754979806  0.27127554487196903  1.0000
  F   F4        1.0  0.030219158536056057  0.9343030582385836  0.8697331253788434  1.0000
  F   F5        1.0  0.9435589703498408  0.9472104957021656  0.8276079350471264  1.0000
  F   F6        1.0  0.363508072856348  0.3258195647067623  0.323272693407489  1.0000
  F   F7        1.0  0.03116471437533619  0.16625215985106934  0.9876264331751372  1.0000
  F   F8        1.0  0.8469002922647633  0.5859132864206913  0.37571905297227204  1.0000
  F   F9        1.0  0.8040519841597416  0.5877820757596055  0.18295702642171818  1.0000
  F   F10       1.0  0.4187020356184803  0.47549553817952983  0.48280956130474806  1.0000
  F   F11       1.0  0.545190955454018  0.09710576014799699  0.7343020812186296  1.0000
  F   F12       1.0  0.25681324748438783  0.493531524844002  0.9265428084909217  1.0000
data_image28
_chemical_formula_structural       Sb2H2O4F12
_chemical_formula_sum              "Sb2 H2 O4 F12"
_cell_length_a       5.174112999999999
_cell_length_b       7.3015345668964695
_cell_length_c       8.134955459169152
_cell_angle_alpha    90.9395314512041
_cell_angle_beta     97.22151606041648
_cell_angle_gamma    91.96796560956827

_space_group_name_H-M_alt    "P 1"
_space_group_IT_number       1

loop_
  _space_group_symop_operation_xyz
  'x, y, z'

loop_
  _atom_site_type_symbol
  _atom_site_label
  _atom_site_symmetry_multiplicity
  _atom_site_fract_x
  _atom_site_fract_y
  _atom_site_fract_z
  _atom_site_occupancy
  Sb  Sb1       1.0  0.23457735186866557  0.6412590406107483  0.526956071757013  1.0000
  Sb  Sb2       1.0  0.9919186683255248  0.7851498178715701  0.04649360382336454  1.0000
  H   H1        1.0  0.1690894640632905  0.12751744676961607  0.3518915516906418  1.0000
  H   H2        1.0  0.14566337945871055  0.29789329878258286  0.9851967097492889  1.0000
  O   O1        1.0  0.2790731629138463  0.8411613956341171  0.2467491263505508  1.0000
  O   O2        1.0  0.2936166500148829  0.4449200975795975  0.4545030247536488  1.0000
  O   O3        1.0  0.7554696220904589  0.6650451196037466  0.4278071602748241  1.0000
  O   O4        1.0  0.7516859618481249  0.6129629359347746  0.7798492468464246  1.0000
  F   F1        1.0  0.9254044298722874  0.40481733583146706  0.7517840746186266  1.0000
  F   F2        1.0  0.4000090207264293  0.3976330667064758  0.4768975571387273  1.0000
  F   F3        1.0  0.2620591426748433  0.04506828782905359  0.8980090411932906  1.0000
  F   F4        1.0  0.6247644936665893  0.06065380290237954  0.10020780202466995  1.0000
  F   F5        1.0  0.284580676452606  0.33547010723123094  0.9051126815247699  1.0000
  F   F6        1.0  0.44419460283825174  0.9879980234691175  0.541415442537982  1.0000
  F   F7        1.0  0.4013832034506777  0.7130597919808679  0.9801044677915343  1.0000
  F   F8        1.0  0.11743705719709396  0.18303189597281744  0.031366412062197924  1.0000
  F   F9        1.0  0.39645538860349916  0.4019345956548932  0.44679561840894166  1.0000
  F   F10       1.0  0.4632641034841072  0.563157190932543  0.04441971932828892  1.0000
  F   F11       1.0  0.0844799748447258  0.49758383055450395  0.25812764003057964  1.0000
  F   F12       1.0  0.8063679461920401  0.30167841457296163  0.995039461646229  1.0000
data_image29
_chemical_formula_structural       Sb2H2O4F12
_chemical_formula_sum              "Sb2 H2 O4 F12"
_cell_length_a       5.174112999999999
_cell_length_b       7.3015345668964695
_cell_length_c       8.134955459169152
_cell_angle_alpha    90.9395314512041
_cell_angle_beta     97.22151606041648
_cell_angle_gamma    91.96796560956827

_space_group_name_H-M_alt    "P 1"
_space_group_IT_number       1

loop_
  _space_group_symop_operation_xyz
  'x, y, z'

loop_
  _atom_site_type_symbol
  _atom_site_label
  _atom_site_symmetry_multiplicity
  _atom_site_fract_x
  _atom_site_fract_y
  _atom_site_fract_z
  _atom_site_occupancy
  Sb  Sb1       1.0  0.49711174999538343  0.28679127365830936  0.5393236890377011  1.0000
  Sb  Sb2       1.0  0.540294412363437  0.46254712914378615  0.1937036592826189  1.0000
  H   H1        1.0  0.12850932354922406  0.6541796375349804  0.9322266108938493  1.0000
  H   H2        1.0  0.28310903115198016  0.37422419963695575  0.13718710653483868  1.0000
  O   O1        1.0  0.9070518762528081  0.11600105246179737  0.5944514611819613  1.0000
  O   O2        1.0  0.9052811871806625  0.9697664231644012  0.20514960070431698  1.0000
  O   O3        1.0  0.855746473534964  0.24414226986118592  0.47868632976314984  1.0000
  O   O4        1.0  0.645003193669254  0.3173241874319501  0.33118182541511487  1.0000
  F   F1        1.0  0.2853346177143976  0.5996293991338462  0.956864524512639  1.0000
  F   F2        1.0  0.31173149531241506  0.1124223896622425  0.9955541139424895  1.0000
  F   F3        1.0  0.5437591892878118  0.5287968697375618  0.5757923026158096  1.0000
  F   F4        1.0  0.19265222598914988  0.697187520294392  0.9059880964341573  1.0000
  F   F5        1.0  0.893854654597817  0.7667730415705591  0.3741870074882172  1.0000
  F   F6        1.0  0.926613159943372  0.07231396916904487  0.2884414536820259  1.0000
  F   F7        1.0  0.17112747586361365  0.6693313706405206  0.4413140907381603  1.0000
  F   F8        1.0  0.7311461319914088  0.9832394234217645  0.22312631586100906  1.0000
  F   F9        1.0  0.5037873133842368  0.7640680801341659  0.7324633700600316  1.0000
  F   F10       1.0  0.2724610817640496  0.9497726556146517  0.8113309692780604  1.0000
  F   F11       1.0  0.7436488953244407  0.5024202073473134  0.7744021069520386  1.0000
  F   F12       1.0  0.37743260014394764  0.2761211193574127  0.522627516562352  1.0000
data_image30
_chemical_formula_structural       Sb2H2O4F12
_chemical_formula_sum              "Sb2 H2 O4 F12"
_cell_length_a       5.174112999999999
_cell_length_b       7.3015345668964695
_cell_length_c       8.134955459169152
_cell_angle_alpha    90.9395314512041
_cell_angle_beta     97.22151606041648
_cell_angle_gamma    91.96796560956827

_space_group_name_H-M_alt    "P 1"
_space_group_IT_number       1

loop_
  _space_group_symop_operation_xyz
  'x, y, z'

loop_
  _atom_site_type_symbol
  _atom_site_label
  _atom_site_symmetry_multiplicity
  _atom_site_fract_x
  _atom_site_fract_y
  _atom_site_fract_z
  _atom_site_occupancy
  Sb  Sb1       1.0  0.2505640185736411  0.3117533367985743  0.1709413845965173  1.0000
  Sb  Sb2       1.0  0.8271041267871624  0.3385368344679591  0.02142037122939655  1.0000
  H   H1        1.0  0.8789412493642885  0.29452039664010954  0.5636745386291295  1.0000
  H   H2        1.0  0.345249529927969  0.3807577011466492  0.8331718919798732  1.0000
  O   O1        1.0  0.8331893552458496  0.8636958003116888  0.04905291262184619  1.0000
  O   O2        1.0  0.757203749846667  0.060411286394810304  0.8464738723123446  1.0000
  O   O3        1.0  0.24972848128527403  0.3014285037497757  0.6990886389394291  1.0000
  O   O4        1.0  0.30606525897746906  0.5700275442213751  0.17890017315585283  1.0000
  F   F1        1.0  0.37307388419867493  0.7006013072095811  0.3594988331788045  1.0000
  F   F2        1.0  0.19114462155266665  0.4887474719507736  0.44631567710166564  1.0000
  F   F3        1.0  0.371092205234163  0.1423824150915607  0.8193066474250372  1.0000
  F   F4        1.0  0.7318015235650819  0.7706282571016345  0.7195269430521876  1.0000
  F   F5        1.0  0.9867566529283067  0.16823911567917094  0.6623412645421922  1.0000
  F   F6        1.0  0.8918358322698623  0.23121757853368763  0.10973145999014378  1.0000
  F   F7        1.0  0.08569315085333074  0.321149285305637  0.24951546666852664  1.0000
  F   F8        1.0  0.564178709173575  0.9149418897977739  0.8768627470126376  1.0000
  F   F9        1.0  0.5806353026418947  0.3554505078936927  0.4188568118797775  1.0000
  F   F10       1.0  0.37468829760473454  0.9164521484053694  0.1512078162486432  1.0000
  F   F11       1.0  0.4955232731444994  0.21265417361428263  0.18507242186024087  1.0000
  F   F12       1.0  0.15690227039158344  0.25309651652059983  0.07545374051551335  1.0000
data_image31
_chemical_formula_structural       Sb2H2O4F12
_chemical_formula_sum              "Sb2 H2 O4 F12"
_cell_length_a       5.174112999999999
_cell_length_b       7.3015345668964695
_cell_length_c       8.134955459169152
_cell_angle_alpha    90.9395314512041
_cell_angle_beta     97.22151606041648
_cell_angle_gamma    91.96796560956827

_space_group_name_H-M_alt    "P 1"
_space_group_IT_number       1

loop_
  _space_group_symop_operation_xyz
  'x, y, z'

loop_
  _atom_site_type_symbol
  _atom_site_label
  _atom_site_symmetry_multiplicity
  _atom_site_fract_x
  _atom_site_fract_y
  _atom_site_fract_z
  _atom_site_occupancy
  Sb  Sb1       1.0  0.08321562917990377  0.22917235262866598  0.37574827221396845  1.0000
  Sb  Sb2       1.0  0.9456907584972214  0.020880479001789354  0.4390785423311172  1.0000
  H   H1        1.0  0.990731845740811  0.9005060246508947  0.6230616485117935  1.0000
  H   H2        1.0  0.9520373973064125  0.579546430031769  0.1322305646026507  1.0000
  O   O1        1.0  0.9759674070082838  0.9934198301270953  0.1999682303148802  1.0000
  O   O2        1.0  0.3985719752381556  0.09060687792953104  0.7686280947382329  1.0000
  O   O3        1.0  0.4227751934668049  0.49664647642930504  0.14362438750686124  1.0000
  O   O4        1.0  0.9571429511124734  0.912138691637665  0.797571531511494  1.0000
  F   F1        1.0  0.5799933282251004  0.5183408918383066  0.812810885709041  1.0000
  F   F2        1.0  0.7483378975884989  0.16988256153126713  0.2711089279218868  1.0000
  F   F3        1.0  0.5969389238380245  0.2865681420589681  0.5978963055367785  1.0000
  F   F4        1.0  0.6343085817352403  0.12425385845563142  0.1880059979739599  1.0000
  F   F5        1.0  0.37984344908909407  0.9236956593595096  0.6578243501062389  1.0000
  F   F6        1.0  0.46771968668326735  0.8776128013560083  0.3518009128019912  1.0000
  F   F7        1.0  0.8205612736455805  0.13137767986336257  0.32418388489895733  1.0000
  F   F8        1.0  0.9136441914597526  0.09226001591741806  0.8000472981948406  1.0000
  F   F9        1.0  0.189007859735284  0.5088819822194637  0.19121279323871931  1.0000
  F   F10       1.0  0.5049859948048834  0.8091457098198589  0.15049310537142446  1.0000
  F   F11       1.0  0.7566618581331568  0.9689193313133728  0.4656004780699732  1.0000
  F   F12       1.0  0.8319871700077783  0.5214669347624294  0.20885578711749986  1.0000
data_image32
_chemical_formula_structural       Sb2H2O4F12
_chemical_formula_sum              "Sb2 H2 O4 F12"
_cell_length_a       5.174112999999999
_cell_length_b       7.3015345668964695
_cell_length_c       8.134955459169152
_cell_angle_alpha    90.9395314512041
_cell_angle_beta     97.22151606041648
_cell_angle_gamma    91.96796560956827

_space_group_name_H-M_alt    "P 1"
_space_group_IT_number       1

loop_
  _space_group_symop_operation_xyz
  'x, y, z'

loop_
  _atom_site_type_symbol
  _atom_site_label
  _atom_site_symmetry_multiplicity
  _atom_site_fract_x
  _atom_site_fract_y
  _atom_site_fract_z
  _atom_site_occupancy
  Sb  Sb1       1.0  0.05708455105923349  0.00202248841378605  0.5082883095456054  1.0000
  Sb  Sb2       1.0  0.6237405134233995  0.7275867323551211  0.382434233708409  1.0000
  H   H1        1.0  0.7287069199519465  0.2918099505313876  0.6933935524430126  1.0000
  H   H2        1.0  0.1874749744310975  0.8678164221637417  0.16795760090462863  1.0000
  O   O1        1.0  0.23272991509293206  0.7395329809223767  0.392963201906241  1.0000
  O   O2        1.0  0.35592095644096844  0.8275013745442266  0.8314366467384389  1.0000
  O   O3        1.0  0.8562143028248101  0.7511423221876612  0.9787966530129779  1.0000
  O   O4        1.0  0.7290033372555627  0.2012968553462997  0.6121439213602571  1.0000
  F   F1        1.0  0.2946191645314684  0.9321273572859354  0.3485201125349704  1.0000
  F   F2        1.0  0.84459973857156  0.6166770662384806  0.7403875587624498  1.0000
  F   F3        1.0  0.3655400042080146  0.008650198535178788  0.6848381974050426  1.0000
  F   F4        1.0  0.5420593772432767  0.951625097222859  0.4886174330022186  1.0000
  F   F5        1.0  0.7054809645051137  0.13927581815369194  0.304942956980085  1.0000
  F   F6        1.0  0.6966959666460752  0.959505147242453  0.48221286066109315  1.0000
  F   F7        1.0  0.35152693158306647  0.5339687224104637  0.14148721996298264  1.0000
  F   F8        1.0  0.24190856190398335  0.08548857529603993  0.9681241029174998  1.0000
  F   F9        1.0  0.7075238210672978  0.013956296701508109  0.8757498351665163  1.0000
  F   F10       1.0  0.144408020467381  0.22533274587476626  0.944050826219609  1.0000
  F   F11       1.0  0.22484260916826315  0.5307532517399522  0.6763169064361136  1.0000
  F   F12       1.0  0.2182561414228985  0.023601679960847832  0.20170724706258625  1.0000
data_image33
_chemical_formula_structural       Sb2H2O4F12
_chemical_formula_sum              "Sb2 H2 O4 F12"
_cell_length_a       5.174112999999999
_cell_length_b       7.3015345668964695
_cell_length_c       8.134955459169152
_cell_angle_alpha    90.9395314512041
_cell_angle_beta     97.22151606041648
_cell_angle_gamma    91.96796560956827

_space_group_name_H-M_alt    "P 1"
_space_group_IT_number       1

loop_
  _space_group_symop_operation_xyz
  'x, y, z'

loop_
  _atom_site_type_symbol
  _atom_site_label
  _atom_site_symmetry_multiplicity
  _atom_site_fract_x
  _atom_site_fract_y
  _atom_site_fract_z
  _atom_site_occupancy
  Sb  Sb1       1.0  0.896329946910555  0.18713550327083794  0.5997462151863147  1.0000
  Sb  Sb2       1.0  0.5094980317444424  0.36629655301658204  0.7787871068012464  1.0000
  H   H1        1.0  0.945559904736001  0.35179550134216697  0.3636826608562842  1.0000
  H   H2        1.0  0.3609494515694678  0.2005289976223139  0.5318231964483857  1.0000
  O   O1        1.0  0.7630730530945584  0.28443704770324985  0.63125719681193  1.0000
  O   O2        1.0  0.9271061255276436  0.7296694707183633  0.3977214241895126  1.0000
  O   O3        1.0  0.9093215636676177  0.8164252220885828  0.8274707246746402  1.0000
  O   O4        1.0  0.3617393081804039  0.37005309903179295  0.599462257225241  1.0000
  F   F1        1.0  0.5901400075526908  0.0788413732952904  0.7249321517647331  1.0000
  F   F2        1.0  0.6423633366357535  0.8966429327992955  0.5349597323984199  1.0000
  F   F3        1.0  0.5260429365803247  0.7660311508370796  0.4550548561253436  1.0000
  F   F4        1.0  0.7260873670456931  0.9743311465936131  0.4277181126526557  1.0000
  F   F5        1.0  0.6791555263189366  0.4190052196427132  0.0566374676200212  1.0000
  F   F6        1.0  0.04372229031287134  0.5253700490138726  0.19301148975500837  1.0000
  F   F7        1.0  0.16383539820162696  0.9137303443922065  0.3049060274479416  1.0000
  F   F8        1.0  0.3721419860376045  0.3143879943445427  0.057220496935769916  1.0000
  F   F9        1.0  0.13382771771284752  0.1939918450661935  0.832516451929223  1.0000
  F   F10       1.0  0.09873678414442111  0.04560331371612847  0.524265580032079  1.0000
  F   F11       1.0  0.009357989474665374  0.029648889034433523  0.392049328511348  1.0000
  F   F12       1.0  0.06983315596880857  0.22040352184558287  0.18736348627135158  1.0000
data_image34
_chemical_formula_structural       Sb2H2O4F12
_chemical_formula_sum              "Sb2 H2 O4 F12"
_cell_length_a       5.174112999999999
_cell_length_b       7.3015345668964695
_cell_length_c       8.134955459169152
_cell_angle_alpha    90.9395314512041
_cell_angle_beta     97.22151606041648
_cell_angle_gamma    91.96796560956827

_space_group_name_H-M_alt    "P 1"
_space_group_IT_number       1

loop_
  _space_group_symop_operation_xyz
  'x, y, z'

loop_
  _atom_site_type_symbol
  _atom_site_label
  _atom_site_symmetry_multiplicity
  _atom_site_fract_x
  _atom_site_fract_y
  _atom_site_fract_z
  _atom_site_occupancy
  Sb  Sb1       1.0  0.5981247505405918  0.8980504047940485  0.531805008649826  1.0000
  Sb  Sb2       1.0  0.935571407986572  0.8530092412547674  0.6765272418015229  1.0000
  H   H1        1.0  0.39243596397864167  0.09009495441841864  0.16456249891780317  1.0000
  H   H2        1.0  0.15361805260181427  0.9328350954892812  0.21176792937330902  1.0000
  O   O1        1.0  0.016984758927719668  0.9185972458944889  0.8422849157914243  1.0000
  O   O2        1.0  0.6297082720557228  0.06771931338880677  0.5270822349993978  1.0000
  O   O3        1.0  0.28347495128400624  0.7080892738013063  0.0994568937458098  1.0000
  O   O4        1.0  0.005457609848235734  0.3332367730909027  0.006388750010955846  1.0000
  F   F1        1.0  0.0265819209307665  0.9354401983728167  0.6623819419510255  1.0000
  F   F2        1.0  0.26853160200698767  0.05366101062099915  0.17615115359149058  1.0000
  F   F3        1.0  0.0072180019506049575  0.6116784586993163  0.5637706448617337  1.0000
  F   F4        1.0  0.3112812871695496  0.5526667005979107  0.502082405902911  1.0000
  F   F5        1.0  0.14683678378059994  0.5761916523770196  0.8707966706278967  1.0000
  F   F6        1.0  0.33862716995645314  0.4250811529200291  0.757938310620375  1.0000
  F   F7        1.0  0.9356098406788078  0.6368275406948669  0.5938516971782519  1.0000
  F   F8        1.0  0.7618979440303519  0.5804159411236469  0.5897721905494109  1.0000
  F   F9        1.0  0.0848683777730912  0.7523256137938006  0.0001732820146571612  1.0000
  F   F10       1.0  0.8392114986927481  0.0594321621756535  0.28834911633020965  1.0000
  F   F11       1.0  0.5363469061994692  0.2777655252702971  0.7086711169140472  1.0000
  F   F12       1.0  0.5855963992653415  0.1782946470193565  0.9714143711316865  1.0000
data_image35
_chemical_formula_structural       Sb2H2O4F12
_chemical_formula_sum              "Sb2 H2 O4 F12"
_cell_length_a       5.174112999999999
_cell_length_b       7.3015345668964695
_cell_length_c       8.134955459169152
_cell_angle_alpha    90.9395314512041
_cell_angle_beta     97.22151606041648
_cell_angle_gamma    91.96796560956827

_space_group_name_H-M_alt    "P 1"
_space_group_IT_number       1

loop_
  _space_group_symop_operation_xyz
  'x, y, z'

loop_
  _atom_site_type_symbol
  _atom_site_label
  _atom_site_symmetry_multiplicity
  _atom_site_fract_x
  _atom_site_fract_y
  _atom_site_fract_z
  _atom_site_occupancy
  Sb  Sb1       1.0  0.14033482938248198  0.28019503245013766  0.2792283007147489  1.0000
  Sb  Sb2       1.0  0.6281497971649515  0.2577993033119128  0.18282395511232608  1.0000
  H   H1        1.0  0.2790573844249593  0.33280858397847624  0.7190886077005416  1.0000
  H   H2        1.0  0.7142198672518134  0.35592187379370444  0.9721189236734062  1.0000
  O   O1        1.0  0.2816973402805161  0.49326279728120426  0.006385690412571421  1.0000
  O   O2        1.0  0.5598655847279588  0.16669646359514445  0.6054897623253055  1.0000
  O   O3        1.0  0.1968713541282341  0.9389288252568804  0.4920213747245725  1.0000
  O   O4        1.0  0.17622116155689582  0.4206981865572743  0.5768516343196097  1.0000
  F   F1        1.0  0.35306923277676105  0.28847868609591387  0.6380080247981823  1.0000
  F   F2        1.0  0.5013559590879595  0.7560126709722681  0.9376491957664257  1.0000
  F   F3        1.0  0.7506502078831545  0.6088892154511996  0.3847379750793607  1.0000
  F   F4        1.0  0.549932581037865  0.7717109682271257  0.2199989988002926  1.0000
  F   F5        1.0  0.3172911536967149  0.043221554115007166  0.8715200061997166  1.0000
  F   F6        1.0  0.1355474853189662  0.8626501497783465  0.574436959635932  1.0000
  F   F7        1.0  0.5902268922654912  0.724926565630085  0.9376053303985827  1.0000
  F   F8        1.0  0.558358978596516  0.8064117420763068  0.11468471435364336  1.0000
  F   F9        1.0  0.1585371920664329  0.033561443007783964  0.9908813608944911  1.0000
  F   F10       1.0  0.2655671272514155  0.8542018092120998  0.5973828273708932  1.0000
  F   F11       1.0  0.26483078076853417  0.8858003835302952  0.5592546551952182  1.0000
  F   F12       1.0  0.29448682759539224  0.39438125674496405  0.48324317831429653  1.0000
data_image36
_chemical_formula_structural       Sb2H2O4F12
_chemical_formula_sum              "Sb2 H2 O4 F12"
_cell_length_a       5.174112999999999
_cell_length_b       7.3015345668964695
_cell_length_c       8.134955459169152
_cell_angle_alpha    90.9395314512041
_cell_angle_beta     97.22151606041648
_cell_angle_gamma    91.96796560956827

_space_group_name_H-M_alt    "P 1"
_space_group_IT_number       1

loop_
  _space_group_symop_operation_xyz
  'x, y, z'

loop_
  _atom_site_type_symbol
  _atom_site_label
  _atom_site_symmetry_multiplicity
  _atom_site_fract_x
  _atom_site_fract_y
  _atom_site_fract_z
  _atom_site_occupancy
  Sb  Sb1       1.0  0.5089532240235712  0.19536468733713264  0.13337085461535025  1.0000
  Sb  Sb2       1.0  0.6161115160211921  0.5826952311763307  0.4990961118382984  1.0000
  H   H1        1.0  0.07224834461521823  0.5250780390997534  0.5292757874703966  1.0000
  H   H2        1.0  0.5774276456795633  0.8581179340108065  0.7261471700621769  1.0000
  O   O1        1.0  0.8437627270031953  0.8400402327097254  0.06371421507901687  1.0000
  O   O2        1.0  0.7184632777061779  0.2011648480547592  0.41162836401781533  1.0000
  O   O3        1.0  0.5814312226139009  0.28257179690990597  0.2755041307536885  1.0000
  O   O4        1.0  0.5062457542808261  0.39384566515218467  0.8705562339891912  1.0000
  F   F1        1.0  0.3734705042006681  0.7904248712875415  0.9002083962113829  1.0000
  F   F2        1.0  0.9152474867005367  0.952456191953388  0.3994529961164517  1.0000
  F   F3        1.0  0.243447621456653  0.3889531772729242  0.19470184267993318  1.0000
  F   F4        1.0  0.02849367997259833  0.7705284497424145  0.06798977247672155  1.0000
  F   F5        1.0  0.7831257899524644  0.5755519615195226  0.5358895341996686  1.0000
  F   F6        1.0  0.7764770569046959  0.4865183211368276  0.7082407216657884  1.0000
  F   F7        1.0  0.5841058693531522  0.43450231912720483  0.4452684175630566  1.0000
  F   F8        1.0  0.7477010566508397  0.04321237973636016  0.2968373619951308  1.0000
  F   F9        1.0  0.8172700495633762  0.6062578079727245  0.8482267600265914  1.0000
  F   F10       1.0  0.15985392237780616  0.03633814022759907  0.7230728249414824  1.0000
  F   F11       1.0  0.49009818617923884  0.84413952066825  0.8941718338192004  1.0000
  F   F12       1.0  0.960829821502557  0.011155090760439634  0.7623337697004899  1.0000
data_image37
_chemical_formula_structural       Sb2H2O4F12
_chemical_formula_sum              "Sb2 H2 O4 F12"
_cell_length_a       5.174112999999999
_cell_length_b       7.3015345668964695
_cell_length_c       8.134955459169152
_cell_angle_alpha    90.9395314512041
_cell_angle_beta     97.22151606041648
_cell_angle_gamma    91.96796560956827

_space_group_name_H-M_alt    "P 1"
_space_group_IT_number       1

loop_
  _space_group_symop_operation_xyz
  'x, y, z'

loop_
  _atom_site_type_symbol
  _atom_site_label
  _atom_site_symmetry_multiplicity
  _atom_site_fract_x
  _atom_site_fract_y
  _atom_site_fract_z
  _atom_site_occupancy
  Sb  Sb1       1.0  0.7969960031550727  0.2771573431091383  0.20543248223839328  1.0000
  Sb  Sb2       1.0  0.4838603322932613  0.35536277958453866  0.46451083781903435  1.0000
  H   H1        1.0  0.8307621876519988  0.5423922694317298  0.5865611514309421  1.0000
  H   H2        1.0  0.7638570198323578  0.22362927105859853  0.8476159436395392  1.0000
  O   O1        1.0  0.5565925188857364  0.11318045157531742  0.9600537314909161  1.0000
  O   O2        1.0  0.5764472194423433  0.5096731393423397  0.9710507897470961  1.0000
  O   O3        1.0  0.7403956734342501  0.5390126452548429  0.9898766452097334  1.0000
  O   O4        1.0  0.25399384667980485  0.3946911920502316  0.618071565295395  1.0000
  F   F1        1.0  0.5168054012756329  0.9300041152746417  0.5968239822395844  1.0000
  F   F2        1.0  0.06304799113422632  0.893136131024221  0.06348119126778329  1.0000
  F   F3        1.0  0.12014022329094587  0.7732103082962567  0.8620433484866226  1.0000
  F   F4        1.0  0.9307817616208922  0.10496321896789595  0.44564304972300306  1.0000
  F   F5        1.0  0.3108789749239804  0.024168861986254342  0.6948463640219416  1.0000
  F   F6        1.0  0.9321377408923581  0.40773366583744064  0.18309526043594815  1.0000
  F   F7        1.0  0.9024152703564141  0.7481801973408437  0.05245311601447611  1.0000
  F   F8        1.0  0.577253645285964  0.2559035834783572  0.958226345712319  1.0000
  F   F9        1.0  0.9221984209143557  0.45287031577026937  0.6859369485246134  1.0000
  F   F10       1.0  0.23190446928492747  0.44354569650022313  0.20244031928450568  1.0000
  F   F11       1.0  0.04127059093298158  0.6561310205731061  0.8398077067522536  1.0000
  F   F12       1.0  0.4651618665375281  0.9233283591165673  0.5446357108012307  1.0000
data_image38
_chemical_formula_structural       Sb2H2O4F12
_chemical_formula_sum              "Sb2 H2 O4 F12"
_cell_length_a       5.174112999999999
_cell_length_b       7.3015345668964695
_cell_length_c       8.134955459169152
_cell_angle_alpha    90.9395314512041
_cell_angle_beta     97.22151606041648
_cell_angle_gamma    91.96796560956827

_space_group_name_H-M_alt    "P 1"
_space_group_IT_number       1

loop_
  _space_group_symop_operation_xyz
  'x, y, z'

loop_
  _atom_site_type_symbol
  _atom_site_label
  _atom_site_symmetry_multiplicity
  _atom_site_fract_x
  _atom_site_fract_y
  _atom_site_fract_z
  _atom_site_occupancy
  Sb  Sb1       1.0  0.8365068899220205  0.7034870185307227  0.8812874036666472  1.0000
  Sb  Sb2       1.0  0.9857323468386312  0.9750543145710253  0.15868706100809504  1.0000
  H   H1        1.0  0.8236710460696486  0.9283404169109417  0.8334529744461179  1.0000
  H   H2        1.0  0.8010692712850869  0.887904299859656  0.6324683014536276  1.0000
  O   O1        1.0  0.42162798361096065  0.08212125239515444  0.10108096701151226  1.0000
  O   O2        1.0  0.6559115253476193  0.020599787210812792  0.10680490182130598  1.0000
  O   O3        1.0  0.17952345008961856  0.9426893989148084  0.5995304327225313  1.0000
  O   O4        1.0  0.14515748289704788  0.2444009133032523  0.5502686461695703  1.0000
  F   F1        1.0  0.7739752260094974  0.49242669047089294  0.46187922411991167  1.0000
  F   F2        1.0  0.439280912061804  0.8299003171268851  0.9572375061761704  1.0000
  F   F3        1.0  0.4671542022806534  0.33613581582176266  0.42863135550032894  1.0000
  F   F4        1.0  0.4463345092663076  0.6497047888042289  0.5932858232990839  1.0000
  F   F5        1.0  0.20793066039914265  0.21399688139354112  0.5318569047012716  1.0000
  F   F6        1.0  0.4362439274555072  0.39203081306186505  0.07470276876119897  1.0000
  F   F7        1.0  0.20744667431949892  0.24015051323112857  0.6140465164207853  1.0000
  F   F8        1.0  0.6854751241626218  0.7151519236977038  0.3427629143698141  1.0000
  F   F9        1.0  0.16194209590321407  0.11009699059650302  0.19127655033827295  1.0000
  F   F10       1.0  0.1276989470497938  0.47646644251653925  0.539367592522467  1.0000
  F   F11       1.0  0.6836174656418734  0.04588809526649129  0.3359862032921228  1.0000
  F   F12       1.0  0.3484099858033005  0.9234986044175457  0.8842417080886662  1.0000
data_image39
_chemical_formula_structural       Sb2H2O4F12
_chemical_formula_sum              "Sb2 H2 O4 F12"
_cell_length_a       5.174112999999999
_cell_length_b       7.3015345668964695
_cell_length_c       8.134955459169152
_cell_angle_alpha    90.9395314512041
_cell_angle_beta     97.22151606041648
_cell_angle_gamma    91.96796560956827

_space_group_name_H-M_alt    "P 1"
_space_group_IT_number       1

loop_
  _space_group_symop_operation_xyz
  'x, y, z'

loop_
  _atom_site_type_symbol
  _atom_site_label
  _atom_site_symmetry_multiplicity
  _atom_site_fract_x
  _atom_site_fract_y
  _atom_site_fract_z
  _atom_site_occupancy
  Sb  Sb1       1.0  0.20034627841960173  0.7745345738876495  0.9104812215373386  1.0000
  Sb  Sb2       1.0  0.7368430760325282  0.9931917598005384  0.9284393821853882  1.0000
  H   H1        1.0  0.17274835278840328  0.6705809567574761  0.8026955852983519  1.0000
  H   H2        1.0  0.16826852085068822  0.681871212189435  0.06895027542486787  1.0000
  O   O1        1.0  0.8882430532103172  0.71531484256775  0.49177599359245505  1.0000
  O   O2        1.0  0.823306359918206  0.07943373752641492  0.3736874560563592  1.0000
  O   O3        1.0  0.7867978406138718  0.4956161440059077  0.4408828652522061  1.0000
  O   O4        1.0  0.6746804637368768  0.32841938722413033  0.09713448468392016  1.0000
  F   F1        1.0  0.02727743140712846  0.937636679969728  0.9904426489192701  1.0000
  F   F2        1.0  0.5226671500131488  0.8217481888277689  0.46574531280930387  1.0000
  F   F3        1.0  0.7900842724247923  0.8927875331355608  0.39079196387501725  1.0000
  F   F4        1.0  0.6785927739547333  0.550664741138462  0.20172580372309312  1.0000
  F   F5        1.0  0.9575925273238681  0.2853100176726002  0.8456255136698019  1.0000
  F   F6        1.0  0.9820741781732067  0.911588962902897  0.4293440024193842  1.0000
  F   F7        1.0  0.42803911584087473  0.8422746199521498  0.32976506126851746  1.0000
  F   F8        1.0  0.3600875955307856  0.002549215034377994  0.6043000004719943  1.0000
  F   F9        1.0  0.13643506265361793  0.9579577281547245  0.41758270932768937  1.0000
  F   F10       1.0  0.3351874725340167  0.4274264860432595  0.17801324598985957  1.0000
  F   F11       1.0  0.4040027118753642  0.415061744301056  0.14192262757205754  1.0000
  F   F12       1.0  0.05637290093000047  0.09350253676529974  0.54379206491285  1.0000
data_image40
_chemical_formula_structural       Sb2H2O4F12
_chemical_formula_sum              "Sb2 H2 O4 F12"
_cell_length_a       5.174112999999999
_cell_length_b       7.3015345668964695
_cell_length_c       8.134955459169152
_cell_angle_alpha    90.9395314512041
_cell_angle_beta     97.22151606041648
_cell_angle_gamma    91.96796560956827

_space_group_name_H-M_alt    "P 1"
_space_group_IT_number       1

loop_
  _space_group_symop_operation_xyz
  'x, y, z'

loop_
  _atom_site_type_symbol
  _atom_site_label
  _atom_site_symmetry_multiplicity
  _atom_site_fract_x
  _atom_site_fract_y
  _atom_site_fract_z
  _atom_site_occupancy
  Sb  Sb1       1.0  0.9258262006769655  0.6964762180796242  0.38264333696861286  1.0000
  Sb  Sb2       1.0  0.5697010795629467  0.22596618946045055  0.4868620793949958  1.0000
  H   H1        1.0  0.868428152866727  0.3510409345544758  0.40679735597223043  1.0000
  H   H2        1.0  0.02719564503058791  0.8900085697678151  0.21788187185302377  1.0000
  O   O1        1.0  0.8392272987730394  0.7811991013586521  0.1120763955404982  1.0000
  O   O2        1.0  0.8355990565614775  0.6376088972610887  0.5692546360951383  1.0000
  O   O3        1.0  0.19365480414126068  0.39883097744314  0.023208028986118734  1.0000
  O   O4        1.0  0.595969308335043  0.8293377868540119  0.24548222614248516  1.0000
  F   F1        1.0  0.9947714099253062  0.5603039824345615  0.8399267605127534  1.0000
  F   F2        1.0  0.6243949898635037  0.8329345328675117  0.8604037206714565  1.0000
  F   F3        1.0  0.6307704789742274  0.7919727736625646  0.8871454854288459  1.0000
  F   F4        1.0  0.3419094560376834  0.028863311526947655  0.7025576782762073  1.0000
  F   F5        1.0  0.5585933936672518  0.2791660811562906  0.9257811905263225  1.0000
  F   F6        1.0  0.9558899314142764  0.9052417568309465  0.5828673271462321  1.0000
  F   F7        1.0  0.029632461071742  0.9842138983185578  0.2596349452032882  1.0000
  F   F8        1.0  0.6950574420625344  0.5300576104818902  0.8283224878832698  1.0000
  F   F9        1.0  0.3270467336406  0.9703628699935507  0.17010949695759336  1.0000
  F   F10       1.0  0.6520703565620352  0.4111470825737342  0.9959807533232379  1.0000
  F   F11       1.0  0.9167664788110415  0.714487776698661  0.10790880946842663  1.0000
  F   F12       1.0  0.2563419467478525  0.8864750813518185  0.7953187625098508  1.0000
data_image41
_chemical_formula_structural       Sb2H2O4F12
_chemical_formula_sum              "Sb2 H2 O4 F12"
_cell_length_a       5.174112999999999
_cell_length_b       7.3015345668964695
_cell_length_c       8.134955459169152
_cell_angle_alpha    90.9395314512041
_cell_angle_beta     97.22151606041648
_cell_angle_gamma    91.96796560956827

_space_group_name_H-M_alt    "P 1"
_space_group_IT_number       1

loop_
  _space_group_symop_operation_xyz
  'x, y, z'

loop_
  _atom_site_type_symbol
  _atom_site_label
  _atom_site_symmetry_multiplicity
  _atom_site_fract_x
  _atom_site_fract_y
  _atom_site_fract_z
  _atom_site_occupancy
  Sb  Sb1       1.0  0.41026115601562196  0.2725927280334872  0.4167944010987412  1.0000
  Sb  Sb2       1.0  0.41429849845007993  0.9121542240063718  0.811203753683003  1.0000
  H   H1        1.0  0.7547312340075223  0.983798521461722  0.9218652966665104  1.0000
  H   H2        1.0  0.05695111304521561  0.9132740740606096  0.12894734530709684  1.0000
  O   O1        1.0  0.012509984560892917  0.16808453644625843  0.7242264344531577  1.0000
  O   O2        1.0  0.04410604629811132  0.49107389006530866  0.020314323919592425  1.0000
  O   O3        1.0  0.22311242949217558  0.9754992351226974  0.6941749588877428  1.0000
  O   O4        1.0  0.8794925605179742  0.34624847464147024  0.019686337360553807  1.0000
  F   F1        1.0  0.41745056680520065  0.8276756306295283  0.5619559043298068  1.0000
  F   F2        1.0  0.43108036641206127  0.20267666931613348  0.5952501117135398  1.0000
  F   F3        1.0  0.09374257296440192  0.410916813678341  0.9107750852617755  1.0000
  F   F4        1.0  0.14678897996782325  0.780592635688663  0.6032994841807522  1.0000
  F   F5        1.0  0.9804561038326938  0.3658845373938675  0.6080416072654771  1.0000
  F   F6        1.0  0.6576765228528529  0.11250188504345715  0.6092709170479793  1.0000
  F   F7        1.0  0.8827509101829492  0.7350994945518323  0.9955669945284171  1.0000
  F   F8        1.0  0.08171797648537904  0.16430204624703038  0.2075022483477369  1.0000
  F   F9        1.0  0.41520892159314826  0.8205892971745925  0.489945048086156  1.0000
  F   F10       1.0  0.12780462496448308  0.642069630586775  0.03507801902742358  1.0000
  F   F11       1.0  0.7887801679898985  0.9362929782982974  0.893029404203844  1.0000
  F   F12       1.0  0.2176653710193932  0.25040294430800714  0.20420637979987077  1.0000
data_image42
_chemical_formula_structural       Sb2H2O4F12
_chemical_formula_sum              "Sb2 H2 O4 F12"
_cell_length_a       5.174112999999999
_cell_length_b       7.3015345668964695
_cell_length_c       8.134955459169152
_cell_angle_alpha    90.9395314512041
_cell_angle_beta     97.22151606041648
_cell_angle_gamma    91.96796560956827

_space_group_name_H-M_alt    "P 1"
_space_group_IT_number       1

loop_
  _space_group_symop_operation_xyz
  'x, y, z'

loop_
  _atom_site_type_symbol
  _atom_site_label
  _atom_site_symmetry_multiplicity
  _atom_site_fract_x
  _atom_site_fract_y
  _atom_site_fract_z
  _atom_site_occupancy
  Sb  Sb1       1.0  0.007494107638194691  0.058146397495875135  0.6788036092475522  1.0000
  Sb  Sb2       1.0  0.40463062608614564  0.6048311291306163  0.3693542620221706  1.0000
  H   H1        1.0  0.09781151471725025  0.49889622837508796  0.5995541681768373  1.0000
  H   H2        1.0  0.2770170026924461  0.9446057838358684  0.2570993050467223  1.0000
  O   O1        1.0  0.39016425794397946  0.2734207128523849  0.5804959523957223  1.0000
  O   O2        1.0  0.5108234412036836  0.23414684389717877  0.21727760568319354  1.0000
  O   O3        1.0  0.823700456880033  0.6805242231930606  0.3296332100289874  1.0000
  O   O4        1.0  0.44205857401539106  0.12102847667119931  0.08729269172181375  1.0000
  F   F1        1.0  0.6333592128503369  0.6326668426336255  0.5323728690236749  1.0000
  F   F2        1.0  0.8868596543761669  0.8268713956495048  0.4688493713256321  1.0000
  F   F3        1.0  0.25881911888609466  0.9407612921713735  0.7387651587614528  1.0000
  F   F4        1.0  0.3154453348979587  0.18435577031050343  0.5056745969923213  1.0000
  F   F5        1.0  0.9766449520539027  0.9247553001332562  0.9780333425733261  1.0000
  F   F6        1.0  0.908671349985525  0.46687454917992  0.5156901916489005  1.0000
  F   F7        1.0  0.3808234898351657  0.21171035375300562  0.3896145546077605  1.0000
  F   F8        1.0  0.7909977177623659  0.9524278186581796  0.15443607128690928  1.0000
  F   F9        1.0  0.9933663164556492  0.3573701748100575  0.9922961933625629  1.0000
  F   F10       1.0  0.3456515211437363  0.7255888422660064  0.5059641921543516  1.0000
  F   F11       1.0  0.9068409356987104  0.8680433396712033  0.2286349122041429  1.0000
  F   F12       1.0  0.5660494616895448  0.2893960756773595  0.44918045547092333  1.0000
data_image43
_chemical_formula_structural       Sb2H2O4F12
_chemical_formula_sum              "Sb2 H2 O4 F12"
_cell_length_a       5.174112999999999
_cell_length_b       7.3015345668964695
_cell_length_c       8.134955459169152
_cell_angle_alpha    90.9395314512041
_cell_angle_beta     97.22151606041648
_cell_angle_gamma    91.96796560956827

_space_group_name_H-M_alt    "P 1"
_space_group_IT_number       1

loop_
  _space_group_symop_operation_xyz
  'x, y, z'

loop_
  _atom_site_type_symbol
  _atom_site_label
  _atom_site_symmetry_multiplicity
  _atom_site_fract_x
  _atom_site_fract_y
  _atom_site_fract_z
  _atom_site_occupancy
  Sb  Sb1       1.0  0.6963978162457352  0.09899851890804712  0.3988957321853377  1.0000
  Sb  Sb2       1.0  0.7895164381479844  0.9410566056831158  0.8891295077899031  1.0000
  H   H1        1.0  0.4660286425882987  0.8543927796563366  0.9872319384594448  1.0000
  H   H2        1.0  0.2577089888509363  0.005673218867741525  0.4453689969377592  1.0000
  O   O1        1.0  0.12655956992239226  0.6511504345398862  0.9514971682510804  1.0000
  O   O2        1.0  0.6238717113592429  0.30988567604799755  0.26601168350316584  1.0000
  O   O3        1.0  0.6192507371306419  0.3635106743022334  0.4624342779861763  1.0000
  O   O4        1.0  0.7604258634528378  0.5390575542187435  0.8295117631205358  1.0000
  F   F1        1.0  0.4055503706767922  0.8942165935586672  0.39569263564590074  1.0000
  F   F2        1.0  0.6285159565304639  0.6095291349774925  0.4844836099946406  1.0000
  F   F3        1.0  0.06668895785151108  0.5172050092623977  0.4433572767302394  1.0000
  F   F4        1.0  0.411999178075348  0.49608466718927957  0.5549105954123661  1.0000
  F   F5        1.0  0.07490946288453415  0.004559240333037451  0.9397355300970958  1.0000
  F   F6        1.0  0.9775278052547947  0.8489778035582276  0.04814625202561729  1.0000
  F   F7        1.0  0.6016571492946241  0.7685969418052991  0.9420794093603035  1.0000
  F   F8        1.0  0.06371221912559122  0.6031593904117472  0.7653019980061799  1.0000
  F   F9        1.0  0.5116661261126865  0.5549230277101742  0.8782399429655925  1.0000
  F   F10       1.0  0.8577901785174618  0.18440001097042114  0.05617272221570602  1.0000
  F   F11       1.0  0.09849071850840119  0.9104338860579446  0.06514050381338166  1.0000
  F   F12       1.0  0.6314758604858071  0.1554200751997996  0.031722376035759225  1.0000
data_image44
_chemical_formula_structural       Sb2H2O4F12
_chemical_formula_sum              "Sb2 H2 O4 F12"
_cell_length_a       5.174112999999999
_cell_length_b       7.3015345668964695
_cell_length_c       8.134955459169152
_cell_angle_alpha    90.9395314512041
_cell_angle_beta     97.22151606041648
_cell_angle_gamma    91.96796560956827

_space_group_name_H-M_alt    "P 1"
_space_group_IT_number       1

loop_
  _space_group_symop_operation_xyz
  'x, y, z'

loop_
  _atom_site_type_symbol
  _atom_site_label
  _atom_site_symmetry_multiplicity
  _atom_site_fract_x
  _atom_site_fract_y
  _atom_site_fract_z
  _atom_site_occupancy
  Sb  Sb1       1.0  0.3380164659174625  0.3480759116646368  0.24654540308983997  1.0000
  Sb  Sb2       1.0  0.11874825836275704  0.09469772486045258  0.4446847768731459  1.0000
  H   H1        1.0  0.28940832669718475  0.9436623168294318  0.43648337887134403  1.0000
  H   H2        1.0  0.8326051952317357  0.6907679573341738  0.34258018468972296  1.0000
  O   O1        1.0  0.7695218739390839  0.14797150692902505  0.8092241011618171  1.0000
  O   O2        1.0  0.38704059780866373  0.752675268886378  0.07540506322402507  1.0000
  O   O3        1.0  0.12215028761420399  0.6970711893518455  0.5591396513627842  1.0000
  O   O4        1.0  0.3927407860173844  0.10459552177781006  0.42112548803561367  1.0000
  F   F1        1.0  0.04071608458616538  0.2863431111036334  0.530948658766647  1.0000
  F   F2        1.0  0.44471701325528556  0.48431869088381063  0.5093082232197048  1.0000
  F   F3        1.0  0.41404070719727315  0.35079607504303567  0.8259425178293895  1.0000
  F   F4        1.0  0.11486496056022588  0.6117574275267543  0.2760563371120952  1.0000
  F   F5        1.0  0.05981929902918637  0.41179371014004573  0.4628565591847291  1.0000
  F   F6        1.0  0.678441182593815  0.4811762938334141  0.8349277664965484  1.0000
  F   F7        1.0  0.11132690999147599  0.36546391018237046  0.8715189474205545  1.0000
  F   F8        1.0  0.23415958555415273  0.3120874742653541  0.6847643593791872  1.0000
  F   F9        1.0  0.006504892109660432  0.911464943739702  0.9455537599787931  1.0000
  F   F10       1.0  0.9460723795200465  0.17743874702136964  0.3390945491846651  1.0000
  F   F11       1.0  0.9865663213131484  0.8829646138983662  0.5100439428624668  1.0000
  F   F12       1.0  0.3125698177027516  0.36725567356916144  0.7750065911095589  1.0000
data_image45
_chemical_formula_structural       Sb2H2O4F12
_chemical_formula_sum              "Sb2 H2 O4 F12"
_cell_length_a       5.174112999999999
_cell_length_b       7.3015345668964695
_cell_length_c       8.134955459169152
_cell_angle_alpha    90.9395314512041
_cell_angle_beta     97.22151606041648
_cell_angle_gamma    91.96796560956827

_space_group_name_H-M_alt    "P 1"
_space_group_IT_number       1

loop_
  _space_group_symop_operation_xyz
  'x, y, z'

loop_
  _atom_site_type_symbol
  _atom_site_label
  _atom_site_symmetry_multiplicity
  _atom_site_fract_x
  _atom_site_fract_y
  _atom_site_fract_z
  _atom_site_occupancy
  Sb  Sb1       1.0  0.10109392407321138  0.41292154016991844  0.41914481099229306  1.0000
  Sb  Sb2       1.0  0.535528973559849  0.39460681523632957  0.8819034784628457  1.0000
  H   H1        1.0  0.6826141699061736  0.12344088257668773  0.15142542589455843  1.0000
  H   H2        1.0  0.25626725470647216  0.2761660784599371  0.08747703616973013  1.0000
  O   O1        1.0  0.8357190031529171  0.6576011864526663  0.5533655435428955  1.0000
  O   O2        1.0  0.723510029623867  0.9655625601881184  0.48480177877354436  1.0000
  O   O3        1.0  0.2473453126149252  0.598802770167822  0.28798911202466115  1.0000
  O   O4        1.0  0.977529159426922  0.2479912476701429  0.21663465919846203  1.0000
  F   F1        1.0  0.7319530996574031  0.4233207084762398  0.3083970171664987  1.0000
  F   F2        1.0  0.04648137488402426  0.39880914489913266  0.40429522341582924  1.0000
  F   F3        1.0  0.23448471883602906  0.1074660144149675  0.9591897796199191  1.0000
  F   F4        1.0  0.16926008791779168  0.14056278370844666  0.18549652461661026  1.0000
  F   F5        1.0  0.7655595117830671  0.5332228971819859  0.9444053102488397  1.0000
  F   F6        1.0  0.924150392296724  0.3738968147808919  0.17704972613137215  1.0000
  F   F7        1.0  0.9324795009015361  0.9859791954677348  0.3288944837549934  1.0000
  F   F8        1.0  0.531561526004225  0.9436375113236863  0.9071352968458086  1.0000
  F   F9        1.0  0.49192491046414943  0.8634328923653811  0.24239447183572338  1.0000
  F   F10       1.0  0.2507277701224666  0.18119093246059492  0.5648336629819823  1.0000
  F   F11       1.0  0.9630362388779758  0.3690929056419918  0.5834848463664457  1.0000
  F   F12       1.0  0.923242114513414  0.8923937403451419  0.7727866143686697  1.0000
data_image46
_chemical_formula_structural       Sb2H2O4F12
_chemical_formula_sum              "Sb2 H2 O4 F12"
_cell_length_a       5.174112999999999
_cell_length_b       7.3015345668964695
_cell_length_c       8.134955459169152
_cell_angle_alpha    90.9395314512041
_cell_angle_beta     97.22151606041648
_cell_angle_gamma    91.96796560956827

_space_group_name_H-M_alt    "P 1"
_space_group_IT_number       1

loop_
  _space_group_symop_operation_xyz
  'x, y, z'

loop_
  _atom_site_type_symbol
  _atom_site_label
  _atom_site_symmetry_multiplicity
  _atom_site_fract_x
  _atom_site_fract_y
  _atom_site_fract_z
  _atom_site_occupancy
  Sb  Sb1       1.0  0.34803481153358007  0.10801437679037917  0.6080725185165647  1.0000
  Sb  Sb2       1.0  0.3083613732160302  0.5413247858559771  0.33784342846411164  1.0000
  H   H1        1.0  0.6483434228757687  0.181546115934907  0.7257966073229909  1.0000
  H   H2        1.0  0.7634853664785624  0.6989318396663293  0.16256898664869368  1.0000
  O   O1        1.0  0.05541130996425636  0.23351173341507092  0.8874359918409027  1.0000
  O   O2        1.0  0.36764886922901496  0.7130761120060924  0.8462099059834145  1.0000
  O   O3        1.0  0.4606948437867686  0.8394096811534837  0.9635689628776163  1.0000
  O   O4        1.0  0.31423739509136794  0.3252456023619743  0.5117959484923631  1.0000
  F   F1        1.0  0.8616152922004403  0.4446408089133911  0.19921894210892788  1.0000
  F   F2        1.0  0.4231809904704278  0.266267392624286  0.8332312123675365  1.0000
  F   F3        1.0  0.06478165610133146  0.7199711581306474  0.30016931469435804  1.0000
  F   F4        1.0  0.2707368814153597  0.0029207452316768467  0.4708204311900772  1.0000
  F   F5        1.0  0.5168754280311987  0.936515952605987  0.16934415267314762  1.0000
  F   F6        1.0  0.06486320786643773  0.7862251965416363  0.22208984788449015  1.0000
  F   F7        1.0  0.29150327613024274  0.3586931476947939  0.27852934953261865  1.0000
  F   F8        1.0  0.7896493694279343  0.7554550337554247  0.6270143040455878  1.0000
  F   F9        1.0  0.9091096832489711  0.6245852324791485  0.4355261939126649  1.0000
  F   F10       1.0  0.8363877800002228  0.2969674611231312  0.12068561966589186  1.0000
  F   F11       1.0  0.7635824174067238  0.13317052286606668  0.6170834409767849  1.0000
  F   F12       1.0  0.500117123927339  0.3858072608272778  0.18453183679957874  1.0000
data_image47
_chemical_formula_structural       Sb2H2O4F12
_chemical_formula_sum              "Sb2 H2 O4 F12"
_cell_length_a       5.174112999999999
_cell_length_b       7.3015345668964695
_cell_length_c       8.134955459169152
_cell_angle_alpha    90.9395314512041
_cell_angle_beta     97.22151606041648
_cell_angle_gamma    91.96796560956827

_space_group_name_H-M_alt    "P 1"
_space_group_IT_number       1

loop_
  _space_group_symop_operation_xyz
  'x, y, z'

loop_
  _atom_site_type_symbol
  _atom_site_label
  _atom_site_symmetry_multiplicity
  _atom_site_fract_x
  _atom_site_fract_y
  _atom_site_fract_z
  _atom_site_occupancy
  Sb  Sb1       1.0  0.5590183650274412  0.367681069415994  0.4526813860575203  1.0000
  Sb  Sb2       1.0  0.7665169374959078  0.14273194081397378  0.449445502481467  1.0000
  H   H1        1.0  0.8817793048874591  0.44971425319090486  0.5659071712289006  1.0000
  H   H2        1.0  0.25185304321348667  0.9952456389146391  0.6036505288211629  1.0000
  O   O1        1.0  0.6129292549885577  0.911910683993483  0.8993697155092377  1.0000
  O   O2        1.0  0.1619844390079379  0.9738916562055238  0.10296981026476715  1.0000
  O   O3        1.0  0.5677649558056146  0.9188057624269277  0.4258671380812302  1.0000
  O   O4        1.0  0.6863377905010566  0.18539673327177297  0.7239599094755249  1.0000
  F   F1        1.0  0.7315575385582633  0.3975469972938299  0.035812758114843746  1.0000
  F   F2        1.0  0.8807368285124539  0.153434195308364  0.3638397908725892  1.0000
  F   F3        1.0  0.21522002097117365  0.37247226215549745  0.41269358648423804  1.0000
  F   F4        1.0  0.9015247287316015  0.8675735338911181  0.04657984076766297  1.0000
  F   F5        1.0  0.5548055522958748  0.19198363227769732  0.9809080568229547  1.0000
  F   F6        1.0  0.8501505359308794  0.08853134162200149  0.06910196966782678  1.0000
  F   F7        1.0  0.39028191452962346  0.5109045619651624  0.9310939317820157  1.0000
  F   F8        1.0  0.4435719456523657  0.06285791551817965  0.857524718507193  1.0000
  F   F9        1.0  0.8225842798274243  0.6754070976749063  0.8185013120018994  1.0000
  F   F10       1.0  0.7565428875968792  0.8842375379172154  0.46974092883465346  1.0000
  F   F11       1.0  0.2461542941746302  0.28843848794895166  0.9809495992867596  1.0000
  F   F12       1.0  0.702852191083366  0.6030125278048217  0.9637873622705229  1.0000
data_image48
_chemical_formula_structural       Sb2H2O4F12
_chemical_formula_sum              "Sb2 H2 O4 F12"
_cell_length_a       5.174112999999999
_cell_length_b       7.3015345668964695
_cell_length_c       8.134955459169152
_cell_angle_alpha    90.9395314512041
_cell_angle_beta     97.22151606041648
_cell_angle_gamma    91.96796560956827

_space_group_name_H-M_alt    "P 1"
_space_group_IT_number       1

loop_
  _space_group_symop_operation_xyz
  'x, y, z'

loop_
  _atom_site_type_symbol
  _atom_site_label
  _atom_site_symmetry_multiplicity
  _atom_site_fract_x
  _atom_site_fract_y
  _atom_site_fract_z
  _atom_site_occupancy
  Sb  Sb1       1.0  0.7444074646191439  0.9279065799491946  0.6813485372986179  1.0000
  Sb  Sb2       1.0  0.5787574379937723  0.722645968584402  0.4744779118682345  1.0000
  H   H1        1.0  0.6846737460691656  0.6221202871020068  0.7531863072654232  1.0000
  H   H2        1.0  0.0648969083558768  0.3433039007941261  0.1275098288897425  1.0000
  O   O1        1.0  0.31894275077502243  0.8329397524066735  0.7156463417923078  1.0000
  O   O2        1.0  0.8270433969446458  0.19407508955919184  0.22228013956919312  1.0000
  O   O3        1.0  0.7400184047291987  0.3776210644573439  0.5289750577067025  1.0000
  O   O4        1.0  0.19954102541487373  0.2619004673906602  0.552863981021801  1.0000
  F   F1        1.0  0.11340978708904004  0.9209008872858249  0.5158128135226434  1.0000
  F   F2        1.0  0.7045973444737683  0.9748130297521129  0.25580731725494843  1.0000
  F   F3        1.0  0.418316148527083  0.988088592668646  0.7484088911078288  1.0000
  F   F4        1.0  0.03320374806935433  0.3048207754181931  0.7952310716500506  1.0000
  F   F5        1.0  0.342775741009973  0.24446342251030728  0.49389323190553114  1.0000
  F   F6        1.0  0.0040392105001956224  0.07928023657586891  0.8168957788293483  1.0000
  F   F7        1.0  0.48114911728771403  0.7023119014083932  0.452694326214818  1.0000
  F   F8        1.0  0.8110043436754495  0.5816443593503209  0.5906717834295705  1.0000
  F   F9        1.0  0.814481840490771  0.45282740201218985  0.7770909039609251  1.0000
  F   F10       1.0  0.6019084956496954  0.17706921466742642  0.041141168505419046  1.0000
  F   F11       1.0  0.5491249208134832  0.22419098853038122  0.7067707922738009  1.0000
  F   F12       1.0  0.8345352415344678  0.5815052837278927  0.12184250820428133  1.0000
data_image49
_chemical_formula_structural       Sb2H2O4F12
_chemical_formula_sum              "Sb2 H2 O4 F12"
_cell_length_a       5.174112999999999
_cell_length_b       7.3015345668964695
_cell_length_c       8.134955459169152
_cell_angle_alpha    90.9395314512041
_cell_angle_beta     97.22151606041648
_cell_angle_gamma    91.96796560956827

_space_group_name_H-M_alt    "P 1"
_space_group_IT_number       1

loop_
  _space_group_symop_operation_xyz
  'x, y, z'

loop_
  _atom_site_type_symbol
  _atom_site_label
  _atom_site_symmetry_multiplicity
  _atom_site_fract_x
  _atom_site_fract_y
  _atom_site_fract_z
  _atom_site_occupancy
  Sb  Sb1       1.0  0.2135219868287095  0.880309778440278  0.3825112765771337  1.0000
  Sb  Sb2       1.0  0.7458810895332135  0.48514212801819667  0.6993066181330505  1.0000
  H   H1        1.0  0.4381991715345066  0.41096709702105727  0.9165887780254707  1.0000
  H   H2        1.0  0.2326418913435191  0.4463457443052903  0.4530366990948096  1.0000
  O   O1        1.0  0.08696020347997546  0.04397252280614339  0.7645129951124545  1.0000
  O   O2        1.0  0.7415146265120711  0.42637996311532333  0.4319554520625388  1.0000
  O   O3        1.0  0.3129946106346324  0.40277476474875584  0.7148704061983153  1.0000
  O   O4        1.0  0.019671041510150644  0.8562366336991545  0.33297036826843396  1.0000
  F   F1        1.0  0.9047401819516381  0.9370936584309675  0.11051711052641622  1.0000
  F   F2        1.0  0.782176749800783  0.727854944387218  0.9986605325539131  1.0000
  F   F3        1.0  0.9132127467928512  0.6798799053540279  0.18834157163655618  1.0000
  F   F4        1.0  0.29206949785293546  0.8184634755452862  0.84097857598681  1.0000
  F   F5        1.0  0.9028283286606893  0.35590292714186944  0.4130321817356162  1.0000
  F   F6        1.0  0.9985674406634644  0.694579340499331  0.5574372797273099  1.0000
  F   F7        1.0  0.11869518188905204  0.5503705532041749  0.7781316202936068  1.0000
  F   F8        1.0  0.24176055227871984  0.08292175068345387  0.5219347464153543  1.0000
  F   F9        1.0  0.47214690236432943  0.5332790571555961  0.7204478596249828  1.0000
  F   F10       1.0  0.7547044866951182  0.03466375055722892  0.28926881819643313  1.0000
  F   F11       1.0  0.8554294334026054  0.5252593931618321  0.5575035094325358  1.0000
  F   F12       1.0  0.22559626505244523  0.11697660908976104  0.7591180590679869  1.0000
data_image50
_chemical_formula_structural       Sb2H2O4F12
_chemical_formula_sum              "Sb2 H2 O4 F12"
_cell_length_a       5.174112999999999
_cell_length_b       7.3015345668964695
_cell_length_c       8.134955459169152
_cell_angle_alpha    90.9395314512041
_cell_angle_beta     97.22151606041648
_cell_angle_gamma    91.96796560956827

_space_group_name_H-M_alt    "P 1"
_space_group_IT_number       1

loop_
  _space_group_symop_operation_xyz
  'x, y, z'

loop_
  _atom_site_type_symbol
  _atom_site_label
  _atom_site_symmetry_multiplicity
  _atom_site_fract_x
  _atom_site_fract_y
  _atom_site_fract_z
  _atom_site_occupancy
  Sb  Sb1       1.0  0.38342562082834775  0.5783505061190226  0.783876552246511  1.0000
  Sb  Sb2       1.0  0.38837839604821056  0.24068581983738113  0.12240855884920165  1.0000
  H   H1        1.0  0.1771694170529372  0.09646984293067362  0.4053044111933559  1.0000
  H   H2        1.0  0.36428737617097795  0.5031254296191037  0.6765622956445441  1.0000
  O   O1        1.0  0.390180792164756  0.454296463256469  0.12191854778211564  1.0000
  O   O2        1.0  0.3532601337938104  0.55448504362721  0.6798324373230571  1.0000
  O   O3        1.0  0.39360462536569685  0.6606839010200929  0.5403760258341208  1.0000
  O   O4        1.0  0.1193445184489974  0.9529855068249162  0.036873970391752664  1.0000
  F   F1        1.0  0.5455215311303618  0.9765771648089867  0.6650517794460029  1.0000
  F   F2        1.0  0.8382187375900685  0.1861543736886233  0.2534921210099128  1.0000
  F   F3        1.0  0.9710086973609577  0.3072830295204767  0.24583030311623588  1.0000
  F   F4        1.0  0.7589817427360686  0.8067765052837785  0.22710380976786837  1.0000
  F   F5        1.0  0.5994372135028243  0.47947758942609653  0.4512135102850152  1.0000
  F   F6        1.0  0.8793768755858764  0.8852480139339605  0.7692314918967895  1.0000
  F   F7        1.0  0.8706294523071847  0.2262702451403129  0.9497435101020528  1.0000
  F   F8        1.0  0.9266467564739287  0.4524926286103437  0.6139062818838283  1.0000
  F   F9        1.0  0.45131265774398344  0.34898352724849246  0.08056125477742171  1.0000
  F   F10       1.0  0.48930727707920596  0.21542003288050182  0.8004653146272176  1.0000
  F   F11       1.0  0.2722693834803067  0.2916195332409188  0.5422679652417912  1.0000
  F   F12       1.0  0.0032709538645576686  0.4641690565040335  0.3958397856040392  1.0000
data_image51
_chemical_formula_structural       Sb2H2O4F12
_chemical_formula_sum              "Sb2 H2 O4 F12"
_cell_length_a       5.174112999999999
_cell_length_b       7.3015345668964695
_cell_length_c       8.134955459169152
_cell_angle_alpha    90.9395314512041
_cell_angle_beta     97.22151606041648
_cell_angle_gamma    91.96796560956827

_space_group_name_H-M_alt    "P 1"
_space_group_IT_number       1

loop_
  _space_group_symop_operation_xyz
  'x, y, z'

loop_
  _atom_site_type_symbol
  _atom_site_label
  _atom_site_symmetry_multiplicity
  _atom_site_fract_x
  _atom_site_fract_y
  _atom_site_fract_z
  _atom_site_occupancy
  Sb  Sb1       1.0  0.1308544396306388  0.36299457301356597  0.4424540388281457  1.0000
  Sb  Sb2       1.0  0.42652242971234955  0.9987757504277397  0.1868842303101701  1.0000
  H   H1        1.0  0.8454578702367144  0.12044582866656128  0.43937170587014407  1.0000
  H   H2        1.0  0.6800421853549778  0.9889056848187465  0.8846511340816505  1.0000
  O   O1        1.0  0.23026674284483306  0.45968999681645073  0.17468902858672664  1.0000
  O   O2        1.0  0.5995692941069137  0.8036695484770462  0.20875135967798997  1.0000
  O   O3        1.0  0.6388565176166594  0.18837146047735587  0.07440550770843402  1.0000
  O   O4        1.0  0.9311757709911035  0.36426845198730007  0.22945807367068483  1.0000
  F   F1        1.0  0.9613041419397632  0.31980028448742814  0.1077551349226269  1.0000
  F   F2        1.0  0.8963453504402423  0.3234251686662901  0.1303787134384038  1.0000
  F   F3        1.0  0.6110535263360362  0.36904666396731045  0.3777921740911552  1.0000
  F   F4        1.0  0.8183815482625505  0.2900273057894083  0.3038034351193346  1.0000
  F   F5        1.0  0.5040575702441856  0.3066701822972391  0.680095033661928  1.0000
  F   F6        1.0  0.8296091847587377  0.07186848735102558  0.7298686836438719  1.0000
  F   F7        1.0  0.5679809867942822  0.21822832151474358  0.008132728038617643  1.0000
  F   F8        1.0  0.4508338145678863  0.5241633542755153  0.590746212634258  1.0000
  F   F9        1.0  0.16515131034248043  0.6144322297186591  0.025664869986940175  1.0000
  F   F10       1.0  0.9046210859087296  0.23853410917217843  0.4472892654885072  1.0000
  F   F11       1.0  0.8783440488914493  0.830228914158397  0.6816053034027618  1.0000
  F   F12       1.0  0.9370138522353955  0.0022274202929111198  0.7693214269820601  1.0000
data_image52
_chemical_formula_structural       Sb2H2O4F12
_chemical_formula_sum              "Sb2 H2 O4 F12"
_cell_length_a       5.174112999999999
_cell_length_b       7.3015345668964695
_cell_length_c       8.134955459169152
_cell_angle_alpha    90.9395314512041
_cell_angle_beta     97.22151606041648
_cell_angle_gamma    91.96796560956827

_space_group_name_H-M_alt    "P 1"
_space_group_IT_number       1

loop_
  _space_group_symop_operation_xyz
  'x, y, z'

loop_
  _atom_site_type_symbol
  _atom_site_label
  _atom_site_symmetry_multiplicity
  _atom_site_fract_x
  _atom_site_fract_y
  _atom_site_fract_z
  _atom_site_occupancy
  Sb  Sb1       1.0  0.5313785239413846  0.9294780845957575  0.26023131716647185  1.0000
  Sb  Sb2       1.0  0.22096628005965613  0.9608541054367379  0.8242403388649109  1.0000
  H   H1        1.0  0.5372728892689338  0.8257315228838706  0.14031725574750453  1.0000
  H   H2        1.0  0.6046188562177122  0.7340540716249961  0.21041041356511414  1.0000
  O   O1        1.0  0.7596366518700961  0.7982227537431754  0.26567488780710846  1.0000
  O   O2        1.0  0.24886403486016206  0.945809077937156  0.1054939515888691  1.0000
  O   O3        1.0  0.7577014300622977  0.3466921755752992  0.8019346217042767  1.0000
  O   O4        1.0  0.2611077466740426  0.35662314674118534  0.894051584546105  1.0000
  F   F1        1.0  0.6708466105155821  0.5080334782833233  0.0556755746511044  1.0000
  F   F2        1.0  0.8693819720647298  0.5888070999353658  0.26201929520357226  1.0000
  F   F3        1.0  0.022578454445465468  0.17527782138131442  0.49586245034151943  1.0000
  F   F4        1.0  0.1961148455447983  0.6509061804244993  0.1086048895958811  1.0000
  F   F5        1.0  0.9165532288025133  0.9604556990379933  0.7432451628556009  1.0000
  F   F6        1.0  0.9182775185909122  0.7097019275579441  0.5938757845724467  1.0000
  F   F7        1.0  0.9317380320571829  0.7258837341005346  0.06632149848337576  1.0000
  F   F8        1.0  0.3330318067455664  0.5215975075407187  0.9694900661706924  1.0000
  F   F9        1.0  0.829741950306925  0.25476143530977424  0.3404798323790601  1.0000
  F   F10       1.0  0.6589673174894415  0.25206180318491533  0.745572154133697  1.0000
  F   F11       1.0  0.8395193347823806  0.2532192588168982  0.2516249033006943  1.0000
  F   F12       1.0  0.9829015407594852  0.5704921252909116  0.498385406244779  1.0000
data_image53
_chemical_formula_structural       Sb2H2O4F12
_chemical_formula_sum              "Sb2 H2 O4 F12"
_cell_length_a       5.174112999999999
_cell_length_b       7.3015345668964695
_cell_length_c       8.134955459169152
_cell_angle_alpha    90.9395314512041
_cell_angle_beta     97.22151606041648
_cell_angle_gamma    91.96796560956827

_space_group_name_H-M_alt    "P 1"
_space_group_IT_number       1

loop_
  _space_group_symop_operation_xyz
  'x, y, z'

loop_
  _atom_site_type_symbol
  _atom_site_label
  _atom_site_symmetry_multiplicity
  _atom_site_fract_x
  _atom_site_fract_y
  _atom_site_fract_z
  _atom_site_occupancy
  Sb  Sb1       1.0  0.5355557054426754  0.08216960336721968  0.11036183431860991  1.0000
  Sb  Sb2       1.0  0.4128518847282976  0.10661233708015061  0.2440294754705974  1.0000
  H   H1        1.0  0.3348526348709129  0.7516605840064585  0.27853096468606964  1.0000
  H   H2        1.0  0.7613552552647889  0.899838202749379  0.7774825667729601  1.0000
  O   O1        1.0  0.36887263432436157  0.30284662457415834  0.22559446591185406  1.0000
  O   O2        1.0  0.3032631144451443  0.7641112362034619  0.9639033083512913  1.0000
  O   O3        1.0  0.7979378355084918  0.922563444764819  0.26768581732176244  1.0000
  O   O4        1.0  0.04795825523615349  0.11144059099024162  0.5493658523773775  1.0000
  F   F1        1.0  0.14672016309850733  0.5763962056080345  0.9900553960324032  1.0000
  F   F2        1.0  0.8075527012260864  0.40708163383533247  0.6142580211026143  1.0000
  F   F3        1.0  0.47871230332384584  0.6322444963334419  0.3520822603168199  1.0000
  F   F4        1.0  0.4309750464890385  0.3481482642091578  0.9430614810553379  1.0000
  F   F5        1.0  0.012677357473876327  0.7083297545323148  0.2655503667629091  1.0000
  F   F6        1.0  0.5882379699032754  0.36465629609483585  0.08662774687400088  1.0000
  F   F7        1.0  0.9087344131476129  0.2881937157261518  0.2534916218601211  1.0000
  F   F8        1.0  0.31318867148365825  0.3873990843858337  0.4082100937375799  1.0000
  F   F9        1.0  0.38957441071397625  0.6900239774986403  0.47795402016799926  1.0000
  F   F10       1.0  0.5785428922972642  0.36589685606304556  0.8528530834882986  1.0000
  F   F11       1.0  0.8143652302824194  0.3691806780589104  0.5333796129449411  1.0000
  F   F12       1.0  0.9913098711986095  0.3130413423641585  0.09222274456988089  1.0000
data_image54
_chemical_formula_structural       Sb2H2O4F12
_chemical_formula_sum              "Sb2 H2 O4 F12"
_cell_length_a       5.174112999999999
_cell_length_b       7.3015345668964695
_cell_length_c       8.134955459169152
_cell_angle_alpha    90.9395314512041
_cell_angle_beta     97.22151606041648
_cell_angle_gamma    91.96796560956827

_space_group_name_H-M_alt    "P 1"
_space_group_IT_number       1

loop_
  _space_group_symop_operation_xyz
  'x, y, z'

loop_
  _atom_site_type_symbol
  _atom_site_label
  _atom_site_symmetry_multiplicity
  _atom_site_fract_x
  _atom_site_fract_y
  _atom_site_fract_z
  _atom_site_occupancy
  Sb  Sb1       1.0  0.8517056092750863  0.393718968021858  0.9741805941739585  1.0000
  Sb  Sb2       1.0  0.7495855790330097  0.3341038877260871  0.06890205662784865  1.0000
  H   H1        1.0  0.9852033085480798  0.5851321037189336  0.5949028941104189  1.0000
  H   H2        1.0  0.9795092167332768  0.9187577881093603  0.4734826256753877  1.0000
  O   O1        1.0  0.6783028172503691  0.9626266154809855  0.4241882446222007  1.0000
  O   O2        1.0  0.05741096497513354  0.9015454660984688  0.5305597340047825  1.0000
  O   O3        1.0  0.0018524564220570028  0.8994311940332409  0.45293638115981594  1.0000
  O   O4        1.0  0.49849608222575625  0.7410536184615921  0.8163752551190555  1.0000
  F   F1        1.0  0.5668522104424483  0.15685768867842853  0.9366610053948534  1.0000
  F   F2        1.0  0.11626457760576159  0.18097058709827252  0.34446966694667935  1.0000
  F   F3        1.0  0.41280623865895905  0.8716243027120072  0.9770884957397357  1.0000
  F   F4        1.0  0.1277672170981532  0.7876625854842132  0.8205016373540275  1.0000
  F   F5        1.0  0.5327686053933576  0.43716306387796067  0.8294656307552941  1.0000
  F   F6        1.0  0.6239238566486165  0.5925261268457689  0.5207558847614564  1.0000
  F   F7        1.0  0.9224645751746721  0.08580137971512158  0.6457860922250802  1.0000
  F   F8        1.0  0.5766996265156195  0.7173625137656927  0.11402313632424921  1.0000
  F   F9        1.0  0.6334518508956535  0.3388966769343824  0.3282214914722772  1.0000
  F   F10       1.0  0.35375578119419515  0.8714327123598196  0.015924568695481867  1.0000
  F   F11       1.0  0.7565783716418082  0.8718149849701149  0.9151209393562567  1.0000
  F   F12       1.0  0.903059141128324  0.7951496206660522  0.5584094944351818  1.0000
data_image55
_chemical_formula_structural       Sb2H2O4F12
_chemical_formula_sum              "Sb2 H2 O4 F12"
_cell_length_a       5.174112999999999
_cell_length_b       7.3015345668964695
_cell_length_c       8.134955459169152
_cell_angle_alpha    90.9395314512041
_cell_angle_beta     97.22151606041648
_cell_angle_gamma    91.96796560956827

_space_group_name_H-M_alt    "P 1"
_space_group_IT_number       1

loop_
  _space_group_symop_operation_xyz
  'x, y, z'

loop_
  _atom_site_type_symbol
  _atom_site_label
  _atom_site_symmetry_multiplicity
  _atom_site_fract_x
  _atom_site_fract_y
  _atom_site_fract_z
  _atom_site_occupancy
  Sb  Sb1       1.0  0.788697614625562  0.7817371961427853  0.3782915272458922  1.0000
  Sb  Sb2       1.0  0.3733834679587744  0.2474988310423214  0.948517526670912  1.0000
  H   H1        1.0  0.6780735946958885  0.10610073286807165  0.06996837811311707  1.0000
  H   H2        1.0  0.9379552663303912  0.17207012567087077  0.19783446670044214  1.0000
  O   O1        1.0  0.21732116513885558  0.7516697992687114  0.880829869012814  1.0000
  O   O2        1.0  0.5398721177480184  0.46923450398026034  0.029220389697002247  1.0000
  O   O3        1.0  0.2972996970638633  0.9986227294139098  0.4695800823974423  1.0000
  O   O4        1.0  0.17158479701174656  0.6080344933143351  0.02239056583493948  1.0000
  F   F1        1.0  0.6153052775880496  0.38504214491695166  0.7634269211084757  1.0000
  F   F2        1.0  0.18667731095411  0.8698199838981964  0.5775062067878025  1.0000
  F   F3        1.0  0.9698859492200427  0.4855986201109772  0.4939207387287752  1.0000
  F   F4        1.0  0.792672719922848  0.2974467410967918  0.5807230156497099  1.0000
  F   F5        1.0  0.4440558041096665  0.030549541115760803  0.9784092911868356  1.0000
  F   F6        1.0  0.6955878806766123  0.49926123171826475  0.13977082539349794  1.0000
  F   F7        1.0  0.7241383459622739  0.5753279591590399  0.5181823833463568  1.0000
  F   F8        1.0  0.5962908860528842  0.6721026359591633  0.3003010150277987  1.0000
  F   F9        1.0  0.11621117038885131  0.4159869067443651  0.7791277848382379  1.0000
  F   F10       1.0  0.3980110695119947  0.009360031021060422  0.6492497291910695  1.0000
  F   F11       1.0  0.43714538114727475  0.5252972518865135  0.15140789891756867  1.0000
  F   F12       1.0  0.9346067800361197  0.2955015408806503  0.009089927742024884  1.0000
data_image56
_chemical_formula_structural       Sb2H2O4F12
_chemical_formula_sum              "Sb2 H2 O4 F12"
_cell_length_a       5.174112999999999
_cell_length_b       7.3015345668964695
_cell_length_c       8.134955459169152
_cell_angle_alpha    90.9395314512041
_cell_angle_beta     97.22151606041648
_cell_angle_gamma    91.96796560956827

_space_group_name_H-M_alt    "P 1"
_space_group_IT_number       1

loop_
  _space_group_symop_operation_xyz
  'x, y, z'

loop_
  _atom_site_type_symbol
  _atom_site_label
  _atom_site_symmetry_multiplicity
  _atom_site_fract_x
  _atom_site_fract_y
  _atom_site_fract_z
  _atom_site_occupancy
  Sb  Sb1       1.0  0.9131194592409884  0.9798779660777654  0.6265351227775682  1.0000
  Sb  Sb2       1.0  0.5554451992793474  0.569530834472971  0.5678150125022512  1.0000
  H   H1        1.0  0.6019892547337804  0.8386544807872269  0.5170125476433896  1.0000
  H   H2        1.0  0.9244270902127028  0.7811167343752459  0.39156814687885344  1.0000
  O   O1        1.0  0.575930808816338  0.753575915354304  0.7719597515533678  1.0000
  O   O2        1.0  0.7294526231416967  0.6853301997180097  0.8158798131044023  1.0000
  O   O3        1.0  0.19641544774640352  0.4986076972272713  0.2798913527512923  1.0000
  O   O4        1.0  0.7385813788132509  0.06496801211324055  0.7469009136839304  1.0000
  F   F1        1.0  0.5960778352164198  0.6588406306982506  0.7522792638519604  1.0000
  F   F2        1.0  0.8045757999680063  0.4892112957604695  0.3762093992809241  1.0000
  F   F3        1.0  0.37624976474035066  0.1458312971117266  0.26043093235057313  1.0000
  F   F4        1.0  0.39385308252531104  0.12877143052173778  0.679519904195331  1.0000
  F   F5        1.0  0.614139546174556  0.46443336669472046  0.9088708432827843  1.0000
  F   F6        1.0  0.5150915426202118  0.8247583593074523  0.7154705787252169  1.0000
  F   F7        1.0  0.7925955722021172  0.5351587459626899  0.9660833070995523  1.0000
  F   F8        1.0  0.7871222426183522  0.3081393923202995  0.944505414343439  1.0000
  F   F9        1.0  0.083210139448056  0.4650102899177  0.4530758467212763  1.0000
  F   F10       1.0  0.8462415171670727  0.4727798133098986  0.037539855373324826  1.0000
  F   F11       1.0  0.8291091338032857  0.33138570730079664  0.5416056776830374  1.0000
  F   F12       1.0  0.7800931401288835  0.8461895244981861  0.5699209972954122  1.0000
data_image57
_chemical_formula_structural       Sb2H2O4F12
_chemical_formula_sum              "Sb2 H2 O4 F12"
_cell_length_a       5.174112999999999
_cell_length_b       7.3015345668964695
_cell_length_c       8.134955459169152
_cell_angle_alpha    90.9395314512041
_cell_angle_beta     97.22151606041648
_cell_angle_gamma    91.96796560956827

_space_group_name_H-M_alt    "P 1"
_space_group_IT_number       1

loop_
  _space_group_symop_operation_xyz
  'x, y, z'

loop_
  _atom_site_type_symbol
  _atom_site_label
  _atom_site_symmetry_multiplicity
  _atom_site_fract_x
  _atom_site_fract_y
  _atom_site_fract_z
  _atom_site_occupancy
  Sb  Sb1       1.0  0.7777041894514696  0.48795258747122716  0.44466621696483344  1.0000
  Sb  Sb2       1.0  0.45070277477498166  0.5670490331685869  0.5672175127474475  1.0000
  H   H1        1.0  0.18431508635694627  0.887114785349695  0.6194669487304054  1.0000
  H   H2        1.0  0.12493178015574813  0.9884224013949279  0.024517895537428558  1.0000
  O   O1        1.0  0.21276855486212298  0.0714772931241896  0.04498466561199166  1.0000
  O   O2        1.0  0.028368418134050444  0.40983731352025643  0.5975284545565955  1.0000
  O   O3        1.0  0.12784929911140352  0.7783105676644482  0.7918283898907248  1.0000
  O   O4        1.0  0.8151798101389431  0.477784743779921  0.8136601813894231  1.0000
  F   F1        1.0  0.29096195615420584  0.19272681899019517  0.2872277486403618  1.0000
  F   F2        1.0  0.16697840413326048  0.042784097080584615  0.22979855579251307  1.0000
  F   F3        1.0  0.8036242342859623  0.16464190024635172  0.1621659288284718  1.0000
  F   F4        1.0  0.9106602913961979  0.4744274400436552  0.2591158543364145  1.0000
  F   F5        1.0  0.009021059493534267  0.890359855722636  0.24645006975333672  1.0000
  F   F6        1.0  0.27399373368825763  0.18125330237671733  0.7002319178136531  1.0000
  F   F7        1.0  0.8082237183843972  0.5593453609872086  0.8579283859332918  1.0000
  F   F8        1.0  0.6599338782252744  0.8986297249357449  0.912417377345264  1.0000
  F   F9        1.0  0.2090620087692514  0.08259514436940663  0.6747159519163688  1.0000
  F   F10       1.0  0.17819379968568683  0.7535503464459907  0.5345531675848179  1.0000
  F   F11       1.0  0.41232969803968444  0.5398573192505864  0.57627082475301  1.0000
  F   F12       1.0  0.5446831763110822  0.27595557756285416  0.3209638517728308  1.0000
data_image58
_chemical_formula_structural       Sb2H2O4F12
_chemical_formula_sum              "Sb2 H2 O4 F12"
_cell_length_a       5.174112999999999
_cell_length_b       7.3015345668964695
_cell_length_c       8.134955459169152
_cell_angle_alpha    90.9395314512041
_cell_angle_beta     97.22151606041648
_cell_angle_gamma    91.96796560956827

_space_group_name_H-M_alt    "P 1"
_space_group_IT_number       1

loop_
  _space_group_symop_operation_xyz
  'x, y, z'

loop_
  _atom_site_type_symbol
  _atom_site_label
  _atom_site_symmetry_multiplicity
  _atom_site_fract_x
  _atom_site_fract_y
  _atom_site_fract_z
  _atom_site_occupancy
  Sb  Sb1       1.0  0.9749430838273838  0.8724945871217642  0.8780644799116999  1.0000
  Sb  Sb2       1.0  0.7234265136066824  0.7881430080451537  0.5734877685863466  1.0000
  H   H1        1.0  0.9159301556646824  0.009372747321322095  0.6441915580653585  1.0000
  H   H2        1.0  0.41844921046867967  0.01179265306564048  0.6049830873962492  1.0000
  O   O1        1.0  0.6048186347034061  0.7168600656441413  0.8080015801242553  1.0000
  O   O2        1.0  0.7743646207964048  0.41007991426158696  0.5081404350930825  1.0000
  O   O3        1.0  0.7548953699879348  0.6119784314651042  0.8873393521644175  1.0000
  O   O4        1.0  0.041685994576255325  0.6555483508418547  0.6467836831288878  1.0000
  F   F1        1.0  0.6478687895505573  0.9932869419862982  0.9940696322355507  1.0000
  F   F2        1.0  0.41636774947255617  0.8905340451456141  0.5769310863797728  1.0000
  F   F3        1.0  0.8024894874251913  0.3753338712522236  0.30112090816692216  1.0000
  F   F4        1.0  0.7646999410353601  0.42692911191261373  0.7930317774298601  1.0000
  F   F5        1.0  0.5340064024785534  0.07272270502289757  0.11312184727285057  1.0000
  F   F6        1.0  0.17227475601248443  0.7301284485401993  0.6142415661306586  1.0000
  F   F7        1.0  0.5096326321654487  0.6007903256995633  0.5422440479039778  1.0000
  F   F8        1.0  0.8291906752856448  0.6693467437580694  0.3341813680017367  1.0000
  F   F9        1.0  0.6391548332758248  0.630608924824628  0.71340926058474  1.0000
  F   F10       1.0  0.5377877955324948  0.03638562542619184  0.967350302846171  1.0000
  F   F11       1.0  0.22141652631398756  0.3864339811698301  0.757907142453405  1.0000
  F   F12       1.0  0.879854824845097  0.9531288017024053  0.17862892118864693  1.0000
data_image59
_chemical_formula_structural       Sb2H2O4F12
_chemical_formula_sum              "Sb2 H2 O4 F12"
_cell_length_a       5.174112999999999
_cell_length_b       7.3015345668964695
_cell_length_c       8.134955459169152
_cell_angle_alpha    90.9395314512041
_cell_angle_beta     97.22151606041648
_cell_angle_gamma    91.96796560956827

_space_group_name_H-M_alt    "P 1"
_space_group_IT_number       1

loop_
  _space_group_symop_operation_xyz
  'x, y, z'

loop_
  _atom_site_type_symbol
  _atom_site_label
  _atom_site_symmetry_multiplicity
  _atom_site_fract_x
  _atom_site_fract_y
  _atom_site_fract_z
  _atom_site_occupancy
  Sb  Sb1       1.0  0.000919177575269714  0.3575826027808944  0.4328909353353083  1.0000
  Sb  Sb2       1.0  0.15022598442737944  0.19227201386820525  0.4245994743960182  1.0000
  H   H1        1.0  0.5751410405646311  0.1672715802997118  0.5749406942049973  1.0000
  H   H2        1.0  0.3739356310106814  0.24960298812948167  0.7264996654121205  1.0000
  O   O1        1.0  0.5410006243328098  0.7459907293086872  0.09694773762021214  1.0000
  O   O2        1.0  0.9716483836673433  0.39197332866024226  0.5049293358461  1.0000
  O   O3        1.0  0.357242179219611  0.8348735844774637  0.689047950640088  1.0000
  O   O4        1.0  0.16828570336656412  0.3860405586528941  0.7563484908314422  1.0000
  F   F1        1.0  0.0536050760129001  0.11077831516740844  0.6367274636695583  1.0000
  F   F2        1.0  0.4651957870228216  0.7026172452315222  0.2902343722198566  1.0000
  F   F3        1.0  0.07199383591796504  0.48257567972905235  0.5950988183831214  1.0000
  F   F4        1.0  0.5761588650784688  0.8304062053794041  0.5577116733184084  1.0000
  F   F5        1.0  0.30005142162553966  0.8240387286932673  0.9130429114156868  1.0000
  F   F6        1.0  0.40356425289064646  0.6709149900780176  0.29222770663909614  1.0000
  F   F7        1.0  0.3214604514942039  0.6809774886496598  0.0157507530075236  1.0000
  F   F8        1.0  0.33976124122273177  0.7539089122583391  0.9371826992137358  1.0000
  F   F9        1.0  0.4142593839642359  0.10098373812797945  0.7829583435122913  1.0000
  F   F10       1.0  0.811242223076988  0.07336517728981562  0.591541367030004  1.0000
  F   F11       1.0  0.16795322947291424  0.3876060366164893  0.926222683287051  1.0000
  F   F12       1.0  0.23475418295129202  0.1619742636976298  0.7088048924488248  1.0000
data_image60
_chemical_formula_structural       Sb2H2O4F12
_chemical_formula_sum              "Sb2 H2 O4 F12"
_cell_length_a       5.174112999999999
_cell_length_b       7.3015345668964695
_cell_length_c       8.134955459169152
_cell_angle_alpha    90.9395314512041
_cell_angle_beta     97.22151606041648
_cell_angle_gamma    91.96796560956827

_space_group_name_H-M_alt    "P 1"
_space_group_IT_number       1

loop_
  _space_group_symop_operation_xyz
  'x, y, z'

loop_
  _atom_site_type_symbol
  _atom_site_label
  _atom_site_symmetry_multiplicity
  _atom_site_fract_x
  _atom_site_fract_y
  _atom_site_fract_z
  _atom_site_occupancy
  Sb  Sb1       1.0  0.5405961009673774  0.3550231516128406  0.5243800878815819  1.0000
  Sb  Sb2       1.0  0.6231777671200689  0.059116567732417025  0.6918297837873979  1.0000
  H   H1        1.0  0.26849900421802886  0.817576019660919  0.9529350448283367  1.0000
  H   H2        1.0  0.2815767037682235  0.7638429135258775  0.9009373472072184  1.0000
  O   O1        1.0  0.8017986794875469  0.7311158836528193  0.0014009744627401233  1.0000
  O   O2        1.0  0.8595961410464952  0.7991953680757433  0.46603620366659015  1.0000
  O   O3        1.0  0.34947354497853667  0.25176237800042145  0.4324976386851631  1.0000
  O   O4        1.0  0.6061495376270614  0.6565196861338336  0.21494313090806827  1.0000
  F   F1        1.0  0.29763838526559994  0.6973333806963637  0.2398133067326853  1.0000
  F   F2        1.0  0.5401071512023918  0.46463219498400576  0.27338570562642417  1.0000
  F   F3        1.0  0.7156692680873675  0.08374719059793279  0.28510481778357644  1.0000
  F   F4        1.0  0.43175890677957796  0.1111502851563273  0.7056268464657478  1.0000
  F   F5        1.0  0.48967031470965594  0.21033993875607848  0.5380805558816064  1.0000
  F   F6        1.0  0.4227398477960378  0.3273106851229386  0.5697384516242892  1.0000
  F   F7        1.0  0.3918070678773802  0.5530931003013393  0.34924968342829743  1.0000
  F   F8        1.0  0.023270457284525037  0.07736283146368805  0.31650624598842114  1.0000
  F   F9        1.0  0.7030696826259373  0.22201336709258612  0.5054969693737803  1.0000
  F   F10       1.0  0.24980791966663674  0.16869407982449047  0.034920478661661036  1.0000
  F   F11       1.0  0.7390657012510928  0.11728804816084448  0.19049366487161024  1.0000
  F   F12       1.0  0.27262224041623995  0.4204580817531678  0.08720851723046508  1.0000
data_image61
_chemical_formula_structural       Sb2H2O4F12
_chemical_formula_sum              "Sb2 H2 O4 F12"
_cell_length_a       5.174112999999999
_cell_length_b       7.3015345668964695
_cell_length_c       8.134955459169152
_cell_angle_alpha    90.9395314512041
_cell_angle_beta     97.22151606041648
_cell_angle_gamma    91.96796560956827

_space_group_name_H-M_alt    "P 1"
_space_group_IT_number       1

loop_
  _space_group_symop_operation_xyz
  'x, y, z'

loop_
  _atom_site_type_symbol
  _atom_site_label
  _atom_site_symmetry_multiplicity
  _atom_site_fract_x
  _atom_site_fract_y
  _atom_site_fract_z
  _atom_site_occupancy
  Sb  Sb1       1.0  0.14340366152464412  0.6518650039797649  0.9108807879383676  1.0000
  Sb  Sb2       1.0  0.4372865292534698  0.33161696085880976  0.0038668837278237334  1.0000
  H   H1        1.0  0.919006337528117  0.3901856790907914  0.7957802943419665  1.0000
  H   H2        1.0  0.42898532235994935  0.0748242445406504  0.42063330265227705  1.0000
  O   O1        1.0  0.6120273886772338  0.6765088436950464  0.40131457638926804  1.0000
  O   O2        1.0  0.9715856777766021  0.7989530905615538  0.6430120021104813  1.0000
  O   O3        1.0  0.7462269418174401  0.21968303533503786  0.7969562511425465  1.0000
  O   O4        1.0  0.19500525882904185  0.6515068106527906  0.5127984296123032  1.0000
  F   F1        1.0  0.2944007759724627  0.547315079573309  0.29628865447557473  1.0000
  F   F2        1.0  0.3730127574162907  0.7946166817564517  0.6450032365537481  1.0000
  F   F3        1.0  0.4429630521481158  0.2962680786513374  0.0697027197747957  1.0000
  F   F4        1.0  0.6309923036606051  0.2122157014964614  0.6951747753773816  1.0000
  F   F5        1.0  0.8465243955142796  0.41047292164876126  0.8581033615628257  1.0000
  F   F6        1.0  0.7098407412413508  0.4804072510582955  0.7097647510527167  1.0000
  F   F7        1.0  0.6278003220068058  0.1485635823883058  0.6275061202677534  1.0000
  F   F8        1.0  0.05117575090844184  0.9097071523428895  0.2649342780932784  1.0000
  F   F9        1.0  0.14567285278462805  0.8772593442554353  0.7887762327118253  1.0000
  F   F10       1.0  0.48147390328813344  0.19793062686221674  0.21282667765626684  1.0000
  F   F11       1.0  0.24213120128115406  0.5289503801614046  0.2859329401544528  1.0000
  F   F12       1.0  0.38658396957907826  0.13103416643571109  0.13112449177424423  1.0000
data_image62
_chemical_formula_structural       Sb2H2O4F12
_chemical_formula_sum              "Sb2 H2 O4 F12"
_cell_length_a       5.174112999999999
_cell_length_b       7.3015345668964695
_cell_length_c       8.134955459169152
_cell_angle_alpha    90.9395314512041
_cell_angle_beta     97.22151606041648
_cell_angle_gamma    91.96796560956827

_space_group_name_H-M_alt    "P 1"
_space_group_IT_number       1

loop_
  _space_group_symop_operation_xyz
  'x, y, z'

loop_
  _atom_site_type_symbol
  _atom_site_label
  _atom_site_symmetry_multiplicity
  _atom_site_fract_x
  _atom_site_fract_y
  _atom_site_fract_z
  _atom_site_occupancy
  Sb  Sb1       1.0  0.09579239423328545  0.5168710698053474  0.5395486994530074  1.0000
  Sb  Sb2       1.0  0.8400378334918059  0.013025244901655242  0.8276025785398815  1.0000
  H   H1        1.0  0.3903831222123699  0.9169457648531534  0.9403591162990779  1.0000
  H   H2        1.0  0.5310277817770839  0.5569929145567585  0.9188454829854891  1.0000
  O   O1        1.0  0.6128346366604092  0.026401211944175884  0.23403986979974434  1.0000
  O   O2        1.0  0.45270494325086474  0.45907354704104364  0.12192671734374017  1.0000
  O   O3        1.0  0.887307187600527  0.7014024935197085  0.07075980794616044  1.0000
  O   O4        1.0  0.6288779526512371  0.9844586995313875  0.9656704603403341  1.0000
  F   F1        1.0  0.4847599342974718  0.8273485832614824  0.29924254919933446  1.0000
  F   F2        1.0  0.054270693806756753  0.04740547449910082  0.8061757825453242  1.0000
  F   F3        1.0  0.9025129865149211  0.6782258047023788  0.3691250425108592  1.0000
  F   F4        1.0  0.577152932419267  0.26027466114464914  0.8367411466315389  1.0000
  F   F5        1.0  0.5612436525407247  0.9330630278855097  0.8544040058040991  1.0000
  F   F6        1.0  0.4712985269725323  0.4140640626756067  0.5073672770231497  1.0000
  F   F7        1.0  0.2849852744402597  0.31622730355593376  0.9522115716972621  1.0000
  F   F8        1.0  0.20299371075816453  0.12490449631877709  0.3879436677088961  1.0000
  F   F9        1.0  0.07090882777993102  0.19622979198175017  0.2532729728409322  1.0000
  F   F10       1.0  0.5341608296148479  0.2370949388423469  0.41532235185150057  1.0000
  F   F11       1.0  0.83882667795217  0.04086091567296535  0.344783833319525  1.0000
  F   F12       1.0  0.05830224452074617  0.3091560089305858  0.37540120372432284  1.0000
data_image63
_chemical_formula_structural       Sb2H2O4F12
_chemical_formula_sum              "Sb2 H2 O4 F12"
_cell_length_a       5.174112999999999
_cell_length_b       7.3015345668964695
_cell_length_c       8.134955459169152
_cell_angle_alpha    90.9395314512041
_cell_angle_beta     97.22151606041648
_cell_angle_gamma    91.96796560956827

_space_group_name_H-M_alt    "P 1"
_space_group_IT_number       1

loop_
  _space_group_symop_operation_xyz
  'x, y, z'

loop_
  _atom_site_type_symbol
  _atom_site_label
  _atom_site_symmetry_multiplicity
  _atom_site_fract_x
  _atom_site_fract_y
  _atom_site_fract_z
  _atom_site_occupancy
  Sb  Sb1       1.0  0.03758796078909654  0.7006417655065889  0.051322906656423584  1.0000
  Sb  Sb2       1.0  0.5113980254682247  0.5611064316544798  0.5012497738007369  1.0000
  H   H1        1.0  0.9829286292078905  0.22251611812680494  0.24269868119154125  1.0000
  H   H2        1.0  0.6859526932239532  0.1305857866536826  0.6607106174342334  1.0000
  O   O1        1.0  0.05175742742721923  0.5679678188462276  0.9734098072513007  1.0000
  O   O2        1.0  0.4712121138582006  0.8055432210676372  0.73097440978745  1.0000
  O   O3        1.0  0.6695241769193672  0.9727067926432937  0.7068863200838678  1.0000
  O   O4        1.0  0.6760853503838007  0.2482767092733411  0.16727095434907824  1.0000
  F   F1        1.0  0.11835212619189406  0.9113668295030948  0.9949272513749747  1.0000
  F   F2        1.0  0.5621446648001438  0.7038906243105885  0.2861157670158718  1.0000
  F   F3        1.0  0.3269144284859067  0.43163453689339804  0.22121441011404386  1.0000
  F   F4        1.0  0.08319493856106419  0.47761299387639156  0.22941205598181114  1.0000
  F   F5        1.0  0.8067508726962842  0.4273000160756055  0.8387476292846259  1.0000
  F   F6        1.0  0.07157328282482922  0.5355988863775565  0.4671493790810928  1.0000
  F   F7        1.0  0.4607030211482197  0.6459857375266438  0.8244428474281449  1.0000
  F   F8        1.0  0.006659582024440169  0.5445748790370999  0.9429547322215512  1.0000
  F   F9        1.0  0.5812406059121713  0.9460259130137274  0.538279906992102  1.0000
  F   F10       1.0  0.4620307447039522  0.6921208305575419  0.9305800948641263  1.0000
  F   F11       1.0  0.4436796499171578  0.4282859894010471  0.5565901978516195  1.0000
  F   F12       1.0  0.6385721052938607  0.6679219786237809  0.4974613165250048  1.0000
data_image64
_chemical_formula_structural       Sb2H2O4F12
_chemical_formula_sum              "Sb2 H2 O4 F12"
_cell_length_a       5.174112999999999
_cell_length_b       7.3015345668964695
_cell_length_c       8.134955459169152
_cell_angle_alpha    90.9395314512041
_cell_angle_beta     97.22151606041648
_cell_angle_gamma    91.96796560956827

_space_group_name_H-M_alt    "P 1"
_space_group_IT_number       1

loop_
  _space_group_symop_operation_xyz
  'x, y, z'

loop_
  _atom_site_type_symbol
  _atom_site_label
  _atom_site_symmetry_multiplicity
  _atom_site_fract_x
  _atom_site_fract_y
  _atom_site_fract_z
  _atom_site_occupancy
  Sb  Sb1       1.0  0.40917924452514853  0.16323717958584893  0.8560231667070184  1.0000
  Sb  Sb2       1.0  0.11566554350429215  0.3840153464479954  0.7501019651444949  1.0000
  H   H1        1.0  0.3256713279552059  0.9827461197855882  0.15897190140094608  1.0000
  H   H2        1.0  0.688045569229871  0.41962423335644417  0.6846892851172015  1.0000
  O   O1        1.0  0.21854137004265795  0.7097477867937414  0.5169019036111422  1.0000
  O   O2        1.0  0.04802471463335678  0.5342706358060241  0.13283499306999147  1.0000
  O   O3        1.0  0.06600921851349995  0.9396840804838575  0.7121818113373592  1.0000
  O   O4        1.0  0.9882613489389769  0.8996061758007272  0.9760606972849928  1.0000
  F   F1        1.0  0.2611043048236752  0.32855299732182175  0.5082326885685688  1.0000
  F   F2        1.0  0.15250979029224254  0.7722884537943173  0.19394864608329954  1.0000
  F   F3        1.0  0.19951619700077572  0.6048783831647597  0.8366414926276775  1.0000
  F   F4        1.0  0.6507495617915993  0.24876805790700018  0.5704350260202773  1.0000
  F   F5        1.0  0.5656995021854527  0.4088747985952068  0.8777770188753493  1.0000
  F   F6        1.0  0.22688535344786942  0.2027183714617422  0.5123340817226563  1.0000
  F   F7        1.0  0.8520116840372793  0.063226665079128  0.9347148222532269  1.0000
  F   F8        1.0  0.719704645103775  0.3631567549309693  0.923892759019509  1.0000
  F   F9        1.0  0.8902648581570247  0.5611742674955167  0.9873894550109981  1.0000
  F   F10       1.0  0.45199620351195335  0.20466578780906275  0.6665002755908063  1.0000
  F   F11       1.0  0.08937127658100508  0.8993966148555046  0.991843887604773  1.0000
  F   F12       1.0  0.4494144007039722  0.7250760035676649  0.8261864434753079  1.0000
data_image65
_chemical_formula_structural       Sb2H2O4F12
_chemical_formula_sum              "Sb2 H2 O4 F12"
_cell_length_a       5.174112999999999
_cell_length_b       7.3015345668964695
_cell_length_c       8.134955459169152
_cell_angle_alpha    90.9395314512041
_cell_angle_beta     97.22151606041648
_cell_angle_gamma    91.96796560956827

_space_group_name_H-M_alt    "P 1"
_space_group_IT_number       1

loop_
  _space_group_symop_operation_xyz
  'x, y, z'

loop_
  _atom_site_type_symbol
  _atom_site_label
  _atom_site_symmetry_multiplicity
  _atom_site_fract_x
  _atom_site_fract_y
  _atom_site_fract_z
  _atom_site_occupancy
  Sb  Sb1       1.0  0.3307238421548391  0.8566470523073804  0.7435218712198548  1.0000
  Sb  Sb2       1.0  0.045940796757349744  0.9678839962289203  0.3031717246115022  1.0000
  H   H1        1.0  0.50034766853787  0.3917060787352966  0.6790926925023086  1.0000
  H   H2        1.0  0.7487761257216334  0.5573281423130538  0.04828855593223125  1.0000
  O   O1        1.0  0.828854704835976  0.39604259590851143  0.871465737465769  1.0000
  O   O2        1.0  0.4575614658824634  0.6201782370917499  0.06865855416981503  1.0000
  O   O3        1.0  0.8649873895337805  0.9862740720272996  0.34954103420022875  1.0000
  O   O4        1.0  0.36751018770155497  0.029375098732998595  0.23288255158695392  1.0000
  F   F1        1.0  0.2844780138184433  0.11349082086235285  0.8250578035149374  1.0000
  F   F2        1.0  0.7509872529335553  0.08167448031599633  0.8957150622009067  1.0000
  F   F3        1.0  0.6395893752924167  0.31436874298378825  0.18832870540063595  1.0000
  F   F4        1.0  0.8980675713464734  0.25147136183659313  0.8376331106410362  1.0000
  F   F5        1.0  0.5745355516555719  0.218036430189386  0.7520632688247133  1.0000
  F   F6        1.0  0.15727020963095129  0.7851122387692158  0.5220881237764843  1.0000
  F   F7        1.0  0.2927771430258872  0.6936190360211185  0.03686904999631224  1.0000
  F   F8        1.0  0.4978782132966444  0.5189755130559206  0.8897546770749614  1.0000
  F   F9        1.0  0.714028410933679  0.35080314964579884  0.28563477450734354  1.0000
  F   F10       1.0  0.6383801179472357  0.07430551352445036  0.2880454946280224  1.0000
  F   F11       1.0  0.48172020583115227  0.9469270168192452  0.7025818771289778  1.0000
  F   F12       1.0  0.6344097187247826  0.764476694734185  0.36376485717482865  1.0000
data_image66
_chemical_formula_structural       Sb2H2O4F12
_chemical_formula_sum              "Sb2 H2 O4 F12"
_cell_length_a       5.174112999999999
_cell_length_b       7.3015345668964695
_cell_length_c       8.134955459169152
_cell_angle_alpha    90.9395314512041
_cell_angle_beta     97.22151606041648
_cell_angle_gamma    91.96796560956827

_space_group_name_H-M_alt    "P 1"
_space_group_IT_number       1

loop_
  _space_group_symop_operation_xyz
  'x, y, z'

loop_
  _atom_site_type_symbol
  _atom_site_label
  _atom_site_symmetry_multiplicity
  _atom_site_fract_x
  _atom_site_fract_y
  _atom_site_fract_z
  _atom_site_occupancy
  Sb  Sb1       1.0  0.016940081972279586  0.7118598946981365  0.19473732449114323  1.0000
  Sb  Sb2       1.0  0.5707936563703697  0.16068019847443793  0.1660319886371724  1.0000
  H   H1        1.0  0.702812309114961  0.6543712260317989  0.9859356468077749  1.0000
  H   H2        1.0  0.9636761685833335  0.5920480860513635  0.2174993061926216  1.0000
  O   O1        1.0  0.3563319130171294  0.5525673136144178  0.9604491028585471  1.0000
  O   O2        1.0  0.754650340822991  0.9221011836780235  0.8819546061567962  1.0000
  O   O3        1.0  0.6634057596093044  0.1997682388901012  0.9440583115792833  1.0000
  O   O4        1.0  0.7802800661738729  0.1828997023694683  0.29635925163165666  1.0000
  F   F1        1.0  0.34606156301742885  0.08874978448147886  0.6442392769349681  1.0000
  F   F2        1.0  0.19178454441134818  0.07613212574506178  0.8926811802302836  1.0000
  F   F3        1.0  0.6934842333466804  0.7268865816586185  0.27565831837273436  1.0000
  F   F4        1.0  0.9599935765854752  0.9466210322461848  0.09994911664398387  1.0000
  F   F5        1.0  0.415763457887806  0.48154356781742536  0.08710255287587643  1.0000
  F   F6        1.0  0.15981878666207194  0.826491135498145  0.6759072333516087  1.0000
  F   F7        1.0  0.5278843387714005  0.2246859626393416  0.8082550193958014  1.0000
  F   F8        1.0  0.2667519656242803  0.328586655552499  0.6405768076656386  1.0000
  F   F9        1.0  0.02427609995356761  0.5280881012877217  0.7198068656725809  1.0000
  F   F10       1.0  0.7182738948031329  0.6250585558009334  0.9513621503865579  1.0000
  F   F11       1.0  0.44075019259798864  0.05345641069288831  0.7634584949482814  1.0000
  F   F12       1.0  0.09542090486502275  0.8196075964078773  0.6604113439389039  1.0000
data_image67
_chemical_formula_structural       Sb2H2O4F12
_chemical_formula_sum              "Sb2 H2 O4 F12"
_cell_length_a       5.174112999999999
_cell_length_b       7.3015345668964695
_cell_length_c       8.134955459169152
_cell_angle_alpha    90.9395314512041
_cell_angle_beta     97.22151606041648
_cell_angle_gamma    91.96796560956827

_space_group_name_H-M_alt    "P 1"
_space_group_IT_number       1

loop_
  _space_group_symop_operation_xyz
  'x, y, z'

loop_
  _atom_site_type_symbol
  _atom_site_label
  _atom_site_symmetry_multiplicity
  _atom_site_fract_x
  _atom_site_fract_y
  _atom_site_fract_z
  _atom_site_occupancy
  Sb  Sb1       1.0  0.7110933033109177  0.6704355953988852  0.14416464188252576  1.0000
  Sb  Sb2       1.0  0.6004142361634877  0.8370275088382186  0.9663501270099459  1.0000
  H   H1        1.0  0.6785034281201661  0.1039317529211985  0.9090099040186033  1.0000
  H   H2        1.0  0.6236388492397964  0.05214061014703475  0.6022242308827117  1.0000
  O   O1        1.0  0.879071634652064  0.9827015569171635  0.21427705901442096  1.0000
  O   O2        1.0  0.2763628608372528  0.754476799047552  0.9094097087508999  1.0000
  O   O3        1.0  0.9831172804697417  0.2066126155987149  0.11258269991958514  1.0000
  O   O4        1.0  0.06564277948928066  0.9675534164889541  0.8838085796742234  1.0000
  F   F1        1.0  0.36910679649736267  0.0006779190734960139  0.38247059186505794  1.0000
  F   F2        1.0  0.5003899004950654  0.8295546496228781  0.06711012359301094  1.0000
  F   F3        1.0  0.7197927193774376  0.6991391072006081  0.4272800510079833  1.0000
  F   F4        1.0  0.6767893098112836  0.5477650080974854  0.3579000270110555  1.0000
  F   F5        1.0  0.4174597885576077  0.7426770449092146  0.604448670259444  1.0000
  F   F6        1.0  0.8420783497858793  0.16452764336463588  0.047950793406926095  1.0000
  F   F7        1.0  0.63576347783237  0.414563719110447  0.15459229197949753  1.0000
  F   F8        1.0  0.4848116054199636  0.0007020918419584632  0.40636613860260695  1.0000
  F   F9        1.0  0.5167607001058059  0.574439696079935  0.16167586707888404  1.0000
  F   F10       1.0  0.3994644954800606  0.8366836936038453  0.37656848212645855  1.0000
  F   F11       1.0  0.6449897891670844  0.8988015678769443  0.2854429318540497  1.0000
  F   F12       1.0  0.05324801577080507  0.9510065146350826  0.6322279730957234  1.0000
data_image68
_chemical_formula_structural       Sb2H2O4F12
_chemical_formula_sum              "Sb2 H2 O4 F12"
_cell_length_a       5.174112999999999
_cell_length_b       7.3015345668964695
_cell_length_c       8.134955459169152
_cell_angle_alpha    90.9395314512041
_cell_angle_beta     97.22151606041648
_cell_angle_gamma    91.96796560956827

_space_group_name_H-M_alt    "P 1"
_space_group_IT_number       1

loop_
  _space_group_symop_operation_xyz
  'x, y, z'

loop_
  _atom_site_type_symbol
  _atom_site_label
  _atom_site_symmetry_multiplicity
  _atom_site_fract_x
  _atom_site_fract_y
  _atom_site_fract_z
  _atom_site_occupancy
  Sb  Sb1       1.0  0.23943783510185312  0.6542198877868941  0.34056056779809296  1.0000
  Sb  Sb2       1.0  0.3708207743766252  0.8548807684419444  0.6812191968776915  1.0000
  H   H1        1.0  0.35634089302038774  0.05724739683500957  0.49789531785063446  1.0000
  H   H2        1.0  0.6658177361823618  0.6774525211076252  0.5010407691588625  1.0000
  O   O1        1.0  0.7773263000090083  0.2697195741493488  0.8639155845739879  1.0000
  O   O2        1.0  0.02539387161959894  0.18760539905633777  0.9530449718004093  1.0000
  O   O3        1.0  0.3470087409950793  0.18036305120040197  0.17555385967716575  1.0000
  O   O4        1.0  0.829467785282759  0.3467147178853338  0.42990222381195053  1.0000
  F   F1        1.0  0.6537199183076154  0.18689484675996937  0.9288604998509982  1.0000
  F   F2        1.0  0.9153899669181556  0.9100695593224373  0.8633263076335425  1.0000
  F   F3        1.0  0.9769073368806858  0.6031971573574992  0.8987915659963619  1.0000
  F   F4        1.0  0.3846692066254036  0.11762833306056564  0.7746770010562614  1.0000
  F   F5        1.0  0.5820384198450483  0.7477769074903335  0.9919119311671238  1.0000
  F   F6        1.0  0.06665214151144028  0.2998635936910432  0.9791440246044658  1.0000
  F   F7        1.0  0.34476603992516175  0.8383794975015917  0.6452566744228534  1.0000
  F   F8        1.0  0.47120838903356344  0.7280712904466782  0.1147844010265544  1.0000
  F   F9        1.0  0.2574072225834243  0.5797776538529433  0.7224508047384006  1.0000
  F   F10       1.0  0.5607823092723265  0.42687902829493396  0.927394774131244  1.0000
  F   F11       1.0  0.9356796116362602  0.6993904100381769  0.7116936266320408  1.0000
  F   F12       1.0  0.47668013103248086  0.6179315988338203  0.8597630458534695  1.0000
data_image69
_chemical_formula_structural       Sb2H2O4F12
_chemical_formula_sum              "Sb2 H2 O4 F12"
_cell_length_a       5.174112999999999
_cell_length_b       7.3015345668964695
_cell_length_c       8.134955459169152
_cell_angle_alpha    90.9395314512041
_cell_angle_beta     97.22151606041648
_cell_angle_gamma    91.96796560956827

_space_group_name_H-M_alt    "P 1"
_space_group_IT_number       1

loop_
  _space_group_symop_operation_xyz
  'x, y, z'

loop_
  _atom_site_type_symbol
  _atom_site_label
  _atom_site_symmetry_multiplicity
  _atom_site_fract_x
  _atom_site_fract_y
  _atom_site_fract_z
  _atom_site_occupancy
  Sb  Sb1       1.0  0.4349014176405035  0.6909000619489234  0.9747896706394386  1.0000
  Sb  Sb2       1.0  0.7113786785339471  0.8636263867956586  0.632188564316948  1.0000
  H   H1        1.0  0.1658156891935505  0.7573105078627123  0.15977401216514409  1.0000
  H   H2        1.0  0.9295215930324048  0.8831453378952574  0.8205003303010017  1.0000
  O   O1        1.0  0.7967338581438526  0.31761293340241536  0.12392182287294418  1.0000
  O   O2        1.0  0.9225162098591682  0.005989003228023648  0.8783896610257216  1.0000
  O   O3        1.0  0.007680452603381127  0.31525129167130217  0.09616199531592429  1.0000
  O   O4        1.0  0.2935484599438496  0.4236595114998636  0.039849200227763504  1.0000
  F   F1        1.0  0.1483514275169  0.7955316461448092  0.7587508560282004  1.0000
  F   F2        1.0  0.42970176138624083  0.8570616332872305  0.6082074237128836  1.0000
  F   F3        1.0  0.7549057751821238  0.41908845101715997  0.0037966097224853  1.0000
  F   F4        1.0  0.7380268392080325  0.1809959114279991  0.5887888472061604  1.0000
  F   F5        1.0  0.35513849911512807  0.7575536012882367  0.7014433878066484  1.0000
  F   F6        1.0  0.24358931696042418  0.81114315094419  0.9075757724349387  1.0000
  F   F7        1.0  0.586051268306619  0.3314569130598102  0.7203464940103004  1.0000
  F   F8        1.0  0.30869222106412053  0.3034851999836974  0.7393453023396432  1.0000
  F   F9        1.0  0.6606133663881337  0.7811381178325973  0.6736825996922562  1.0000
  F   F10       1.0  0.5746038132929243  0.22615297470474616  0.46254044747911394  1.0000
  F   F11       1.0  0.8835427185549634  0.8230146453279303  0.08001059322123183  1.0000
  F   F12       1.0  0.626095455721952  0.8585957626419258  0.33199291191704106  1.0000
data_image70
_chemical_formula_structural       Sb2H2O4F12
_chemical_formula_sum              "Sb2 H2 O4 F12"
_cell_length_a       5.174112999999999
_cell_length_b       7.3015345668964695
_cell_length_c       8.134955459169152
_cell_angle_alpha    90.9395314512041
_cell_angle_beta     97.22151606041648
_cell_angle_gamma    91.96796560956827

_space_group_name_H-M_alt    "P 1"
_space_group_IT_number       1

loop_
  _space_group_symop_operation_xyz
  'x, y, z'

loop_
  _atom_site_type_symbol
  _atom_site_label
  _atom_site_symmetry_multiplicity
  _atom_site_fract_x
  _atom_site_fract_y
  _atom_site_fract_z
  _atom_site_occupancy
  Sb  Sb1       1.0  0.4340753563446924  0.3065805182995973  0.15549689685576595  1.0000
  Sb  Sb2       1.0  0.5711555787420366  0.4184429835077026  0.4215807589140468  1.0000
  H   H1        1.0  0.013856562320142984  0.49219826571061276  0.9785408689640462  1.0000
  H   H2        1.0  0.9502045654226094  0.46822757984045893  0.6125032100826502  1.0000
  O   O1        1.0  0.276462867455848  0.1309135728952242  0.9021052964963019  1.0000
  O   O2        1.0  0.883293528255308  0.7420389549806714  0.1600206420989707  1.0000
  O   O3        1.0  0.4604545645415783  0.2324372474104166  0.6268721508677118  1.0000
  O   O4        1.0  0.13699982274556533  0.6347270610094711  0.9017683512647636  1.0000
  F   F1        1.0  0.535705056230654  0.5679311850690283  0.6462604860280408  1.0000
  F   F2        1.0  0.42922838128288276  0.9519465229532216  0.3328980959049659  1.0000
  F   F3        1.0  0.43250631756382063  0.7469557724434708  0.9566192866768688  1.0000
  F   F4        1.0  0.9618883841558272  0.3175269920993742  0.031521212484221905  1.0000
  F   F5        1.0  0.05009334988426417  0.6592188474605791  0.271762135613244  1.0000
  F   F6        1.0  0.5822703447192907  0.7130981484951917  0.14588014254695736  1.0000
  F   F7        1.0  0.1594313558380236  0.265885524218902  0.6613584110673401  1.0000
  F   F8        1.0  0.3595458136405796  0.18451615882804617  0.16878059157170355  1.0000
  F   F9        1.0  0.12769818735250738  0.22032808406220283  0.5362212479894879  1.0000
  F   F10       1.0  0.9730065960902721  0.27869867987465113  0.004416877345647663  1.0000
  F   F11       1.0  0.19154674280434847  0.3912811039481312  0.3209798529132968  1.0000
  F   F12       1.0  0.5714850225340342  0.47711184566287557  0.2742691595776705  1.0000
data_image71
_chemical_formula_structural       Sb2H2O4F12
_chemical_formula_sum              "Sb2 H2 O4 F12"
_cell_length_a       5.174112999999999
_cell_length_b       7.3015345668964695
_cell_length_c       8.134955459169152
_cell_angle_alpha    90.9395314512041
_cell_angle_beta     97.22151606041648
_cell_angle_gamma    91.96796560956827

_space_group_name_H-M_alt    "P 1"
_space_group_IT_number       1

loop_
  _space_group_symop_operation_xyz
  'x, y, z'

loop_
  _atom_site_type_symbol
  _atom_site_label
  _atom_site_symmetry_multiplicity
  _atom_site_fract_x
  _atom_site_fract_y
  _atom_site_fract_z
  _atom_site_occupancy
  Sb  Sb1       1.0  0.119508783594938  0.2106145962170558  0.9546119475562591  1.0000
  Sb  Sb2       1.0  0.707617751788348  0.37133875575091224  0.1636015228159522  1.0000
  H   H1        1.0  0.6017662466038018  0.5282612713635899  0.8657517071114853  1.0000
  H   H2        1.0  0.1594702093861997  0.5054767975816503  0.4451002150308341  1.0000
  O   O1        1.0  0.1939036583644338  0.22104655276052654  0.8980193163151853  1.0000
  O   O2        1.0  0.000860354324686341  0.6635920723201707  0.3752196467248723  1.0000
  O   O3        1.0  0.6067332838429138  0.41498883433814626  0.6110736179980449  1.0000
  O   O4        1.0  0.2739608420233708  0.5755211268697167  0.6501135725993663  1.0000
  F   F1        1.0  0.9519717075600056  0.5702601975062862  0.4128639833215857  1.0000
  F   F2        1.0  0.6055585781577975  0.9927454972057603  0.687867183383787  1.0000
  F   F3        1.0  0.2582535554902279  0.25943792593534454  0.4581112237428897  1.0000
  F   F4        1.0  0.06505144147558894  0.25647891757034813  0.2769740815856494  1.0000
  F   F5        1.0  0.7760162309277803  0.6917141938465647  0.11050835612695664  1.0000
  F   F6        1.0  0.2914712487254292  0.09398752518973197  0.9249917129345704  1.0000
  F   F7        1.0  0.3782595967859379  0.03695348659675801  0.23139925968280295  1.0000
  F   F8        1.0  0.9066306322347373  0.48867799193249084  0.8965069564292207  1.0000
  F   F9        1.0  0.5762228480016347  0.39846095150278416  0.9157387833793109  1.0000
  F   F10       1.0  0.35784230462741107  0.008672381954966113  0.6578939540340798  1.0000
  F   F11       1.0  0.09979565278626978  0.5673188730434049  0.017215227788256016  1.0000
  F   F12       1.0  0.35995376331266016  0.005322497709130403  0.8099620383582078  1.0000
data_image72
_chemical_formula_structural       Sb2H2O4F12
_chemical_formula_sum              "Sb2 H2 O4 F12"
_cell_length_a       5.174112999999999
_cell_length_b       7.3015345668964695
_cell_length_c       8.134955459169152
_cell_angle_alpha    90.9395314512041
_cell_angle_beta     97.22151606041648
_cell_angle_gamma    91.96796560956827

_space_group_name_H-M_alt    "P 1"
_space_group_IT_number       1

loop_
  _space_group_symop_operation_xyz
  'x, y, z'

loop_
  _atom_site_type_symbol
  _atom_site_label
  _atom_site_symmetry_multiplicity
  _atom_site_fract_x
  _atom_site_fract_y
  _atom_site_fract_z
  _atom_site_occupancy
  Sb  Sb1       1.0  0.14629516817512922  0.3055539203196531  0.08980583178345114  1.0000
  Sb  Sb2       1.0  0.4725554856559029  0.4539465947309509  0.4868133035743085  1.0000
  H   H1        1.0  0.4454300989746116  0.44327258678822545  0.048575739841908216  1.0000
  H   H2        1.0  0.2667077095247805  0.5375987743027508  0.7110636645229533  1.0000
  O   O1        1.0  0.47279066272312775  0.16814975999295712  0.9815789485583082  1.0000
  O   O2        1.0  0.3402462943777209  0.007153147831559181  0.37862052844138816  1.0000
  O   O3        1.0  0.631153415190056  0.6761787348223152  0.626071144186426  1.0000
  O   O4        1.0  0.7562041857745498  0.7303521707071923  0.7011577234370634  1.0000
  F   F1        1.0  0.9214447004487738  0.8667910311487503  0.3018011658641626  1.0000
  F   F2        1.0  0.3754454596055439  0.7986049873870797  0.1329293353119283  1.0000
  F   F3        1.0  0.8698185624307371  0.48520204632222885  0.941981807234697  1.0000
  F   F4        1.0  0.8070184722510021  0.8413120535205962  0.240157951193396  1.0000
  F   F5        1.0  0.07089608540991321  0.9278957524511497  0.32468401856021956  1.0000
  F   F6        1.0  0.8891829587519169  0.5126687076699454  0.31524347348022275  1.0000
  F   F7        1.0  0.8663413094982388  0.5892321762003121  0.6923343527851102  1.0000
  F   F8        1.0  0.5609911808278412  0.22494350859778933  0.5328368785558268  1.0000
  F   F9        1.0  0.5016494836017955  0.15158176987461047  0.5557790836519416  1.0000
  F   F10       1.0  0.503791001799982  0.5288874323887285  0.16847887782205362  1.0000
  F   F11       1.0  0.33105461278319126  0.5914578298397828  0.47380894442176213  1.0000
  F   F12       1.0  0.4109783954845625  0.12892262553214096  0.9647714958846336  1.0000
data_image73
_chemical_formula_structural       Sb2H2O4F12
_chemical_formula_sum              "Sb2 H2 O4 F12"
_cell_length_a       5.174112999999999
_cell_length_b       7.3015345668964695
_cell_length_c       8.134955459169152
_cell_angle_alpha    90.9395314512041
_cell_angle_beta     97.22151606041648
_cell_angle_gamma    91.96796560956827

_space_group_name_H-M_alt    "P 1"
_space_group_IT_number       1

loop_
  _space_group_symop_operation_xyz
  'x, y, z'

loop_
  _atom_site_type_symbol
  _atom_site_label
  _atom_site_symmetry_multiplicity
  _atom_site_fract_x
  _atom_site_fract_y
  _atom_site_fract_z
  _atom_site_occupancy
  Sb  Sb1       1.0  0.8347587532189209  0.37799624119361397  0.5873161552008241  1.0000
  Sb  Sb2       1.0  0.39750053563329857  0.28793236342608  0.737559701938153  1.0000
  H   H1        1.0  0.1265766165452078  0.4410241882651462  0.23162980808410794  1.0000
  H   H2        1.0  0.37943050963804126  0.11645018513081595  0.5182374431751668  1.0000
  O   O1        1.0  0.1087266739923507  0.6613301233155653  0.7008928826544434  1.0000
  O   O2        1.0  0.5352172426210018  0.48103649797849357  0.5443197179702111  1.0000
  O   O3        1.0  0.8177626537508331  0.6682688656437676  0.12218280875822529  1.0000
  O   O4        1.0  0.5255177081853617  0.7865326496830676  0.5331537742749788  1.0000
  F   F1        1.0  0.9297049733722815  0.7351805442594923  0.9186144005143433  1.0000
  F   F2        1.0  0.6376063358184183  0.3533939038752578  0.2704908934465493  1.0000
  F   F3        1.0  0.8348254295124207  0.7316171344427858  0.5671213492350944  1.0000
  F   F4        1.0  0.9923659167598089  0.006350046411171206  0.5477080637356266  1.0000
  F   F5        1.0  0.49415517691522837  0.6962479291541968  0.4991224613622762  1.0000
  F   F6        1.0  0.15058705350384116  0.5191002597421175  0.6764739918289706  1.0000
  F   F7        1.0  0.7316606505773962  0.44459732515679207  0.3160960275963589  1.0000
  F   F8        1.0  0.21241722023114562  0.7834612237056717  0.7221534388372675  1.0000
  F   F9        1.0  0.58411116321804  0.840119966531347  0.9473714388441294  1.0000
  F   F10       1.0  0.8213176217977889  0.9121638686046936  0.644465773992124  1.0000
  F   F11       1.0  0.953906976217695  0.48895855640876107  0.8097339000596548  1.0000
  F   F12       1.0  0.40853599472757196  0.946762234219932  0.9076749573578127  1.0000
data_image74
_chemical_formula_structural       Sb2H2O4F12
_chemical_formula_sum              "Sb2 H2 O4 F12"
_cell_length_a       5.174112999999999
_cell_length_b       7.3015345668964695
_cell_length_c       8.134955459169152
_cell_angle_alpha    90.9395314512041
_cell_angle_beta     97.22151606041648
_cell_angle_gamma    91.96796560956827

_space_group_name_H-M_alt    "P 1"
_space_group_IT_number       1

loop_
  _space_group_symop_operation_xyz
  'x, y, z'

loop_
  _atom_site_type_symbol
  _atom_site_label
  _atom_site_symmetry_multiplicity
  _atom_site_fract_x
  _atom_site_fract_y
  _atom_site_fract_z
  _atom_site_occupancy
  Sb  Sb1       1.0  0.7939027732354589  0.9790890323929489  0.044971754105063155  1.0000
  Sb  Sb2       1.0  0.7517405414982932  0.9751774220858351  0.8196915768749022  1.0000
  H   H1        1.0  0.7117365205776878  0.05130923996330239  0.5232741276267916  1.0000
  H   H2        1.0  0.8166912591550499  0.33258995655342005  0.5658916477113962  1.0000
  O   O1        1.0  0.06055829506658483  0.9073369131656364  0.7455117840436287  1.0000
  O   O2        1.0  0.30491600651293993  0.3310174068901688  0.33242829667869955  1.0000
  O   O3        1.0  0.952504628454335  0.8632901983801275  0.010771680797915906  1.0000
  O   O4        1.0  0.14576099161058664  0.1379657859215513  0.9818044398562051  1.0000
  F   F1        1.0  0.33594674106279854  0.30556262913160026  0.7970702208185685  1.0000
  F   F2        1.0  0.0908320553280646  0.3005707330885343  0.8238171282209805  1.0000
  F   F3        1.0  0.20078668825590285  0.3616042845751508  0.9715831576395431  1.0000
  F   F4        1.0  0.6824066116514587  0.36206769874479505  0.30130328139057383  1.0000
  F   F5        1.0  0.5629745066980831  0.25222918306826614  0.47057539768866263  1.0000
  F   F6        1.0  0.9976217816583812  0.1549364684979082  0.44193115810048766  1.0000
  F   F7        1.0  0.14312050250373431  0.29984378088556696  0.9764974839272327  1.0000
  F   F8        1.0  0.6132978353416547  0.619547592883464  0.6626969197532162  1.0000
  F   F9        1.0  0.5591988866653992  0.8166991009566118  0.09862770730433112  1.0000
  F   F10       1.0  0.44994376186514273  0.14179680569213815  0.8238023989397334  1.0000
  F   F11       1.0  0.98328030025732  0.8111486470152158  0.5019891086703865  1.0000
  F   F12       1.0  0.3328223290372989  0.8734551049346919  0.12152636556129437  1.0000
data_image75
_chemical_formula_structural       Sb2H2O4F12
_chemical_formula_sum              "Sb2 H2 O4 F12"
_cell_length_a       5.174112999999999
_cell_length_b       7.3015345668964695
_cell_length_c       8.134955459169152
_cell_angle_alpha    90.9395314512041
_cell_angle_beta     97.22151606041648
_cell_angle_gamma    91.96796560956827

_space_group_name_H-M_alt    "P 1"
_space_group_IT_number       1

loop_
  _space_group_symop_operation_xyz
  'x, y, z'

loop_
  _atom_site_type_symbol
  _atom_site_label
  _atom_site_symmetry_multiplicity
  _atom_site_fract_x
  _atom_site_fract_y
  _atom_site_fract_z
  _atom_site_occupancy
  Sb  Sb1       1.0  0.9900025920069311  0.31129956006770954  0.3324538891320117  1.0000
  Sb  Sb2       1.0  0.6279468691936927  0.4024985993783048  0.2951232355990214  1.0000
  H   H1        1.0  0.6121701931697316  0.4261848760070279  0.1389108378207311  1.0000
  H   H2        1.0  0.4974159384146333  0.46776122858864255  0.581482513458468  1.0000
  O   O1        1.0  0.008860256086336449  0.6065402420354076  0.5785550298751332  1.0000
  O   O2        1.0  0.9308390757214511  0.8130631789099425  0.0286726385820657  1.0000
  O   O3        1.0  0.9463084642775357  0.12316094734705985  0.6498793746577576  1.0000
  O   O4        1.0  0.670440738380421  0.2743046819814481  0.23648356209741905  1.0000
  F   F1        1.0  0.9067445422842866  0.9872338066343218  0.5593153417939902  1.0000
  F   F2        1.0  0.3185442515386967  0.26116657740203664  0.5631635241006734  1.0000
  F   F3        1.0  0.8303388588465168  0.7395259532495402  0.5968779635622923  1.0000
  F   F4        1.0  0.5741253997421154  0.17243353828780528  0.23272265016566962  1.0000
  F   F5        1.0  0.6295986992190592  0.838874376291642  0.9661408769607078  1.0000
  F   F6        1.0  0.22866137535311282  0.8129105599327886  0.2157706668076571  1.0000
  F   F7        1.0  0.8043935469831922  0.5923709970593336  0.8351272239287937  1.0000
  F   F8        1.0  0.8657015486387536  0.6681162786553614  0.6825648146914318  1.0000
  F   F9        1.0  0.2765697142749559  0.05670610096422024  0.3335941076165909  1.0000
  F   F10       1.0  0.08098996494663879  0.7220406064589042  0.7026794985576998  1.0000
  F   F11       1.0  0.29641775392883574  0.561030529148411  0.09237381026468938  1.0000
  F   F12       1.0  0.08907156111126824  0.2472500922594918  0.2741889312019339  1.0000
data_image76
_chemical_formula_structural       Sb2H2O4F12
_chemical_formula_sum              "Sb2 H2 O4 F12"
_cell_length_a       5.174112999999999
_cell_length_b       7.3015345668964695
_cell_length_c       8.134955459169152
_cell_angle_alpha    90.9395314512041
_cell_angle_beta     97.22151606041648
_cell_angle_gamma    91.96796560956827

_space_group_name_H-M_alt    "P 1"
_space_group_IT_number       1

loop_
  _space_group_symop_operation_xyz
  'x, y, z'

loop_
  _atom_site_type_symbol
  _atom_site_label
  _atom_site_symmetry_multiplicity
  _atom_site_fract_x
  _atom_site_fract_y
  _atom_site_fract_z
  _atom_site_occupancy
  Sb  Sb1       1.0  0.5591124024649616  0.634342543897219  0.5919915293925442  1.0000
  Sb  Sb2       1.0  0.20435946409997996  0.4942957735329401  0.18730291631800355  1.0000
  H   H1        1.0  0.7011238335981034  0.11008774298534263  0.36911586474161595  1.0000
  H   H2        1.0  0.15341238747350872  0.7323843759659212  0.75427786342334  1.0000
  O   O1        1.0  0.8585301767743658  0.32098944671452045  0.024792972835712135  1.0000
  O   O2        1.0  0.07706112596497405  0.042670264723710716  0.30263285798719153  1.0000
  O   O3        1.0  0.9851378761813976  0.2893046853132546  0.04383955872617662  1.0000
  O   O4        1.0  0.28634452575352043  0.594167984847445  0.6054015632835217  1.0000
  F   F1        1.0  0.6126368341356283  0.3336392889614217  0.8522680471651256  1.0000
  F   F2        1.0  0.511870090951561  0.7656497990828939  0.4793409354315372  1.0000
  F   F3        1.0  0.26976400206331164  0.890761266437039  0.8857671223595389  1.0000
  F   F4        1.0  0.4362123181363131  0.5121775715124386  0.5639433383475989  1.0000
  F   F5        1.0  0.7706094140885398  0.165876663668314  0.4235942170198541  1.0000
  F   F6        1.0  0.4440452423878014  0.583006567110715  0.17138597450684756  1.0000
  F   F7        1.0  0.8825274919217918  0.15349841208808357  0.5747410278381722  1.0000
  F   F8        1.0  0.4879249265650287  0.42611200344981626  0.9214723180048168  1.0000
  F   F9        1.0  0.19847262860275805  0.15600955781701487  0.5097980552509398  1.0000
  F   F10       1.0  0.36728310986654833  0.1604623912135139  0.797779834800167  1.0000
  F   F11       1.0  0.16201255135820247  0.732293103588745  0.6785477585945046  1.0000
  F   F12       1.0  0.03607285730532794  0.9422178454551613  0.11534106505860109  1.0000
data_image77
_chemical_formula_structural       Sb2H2O4F12
_chemical_formula_sum              "Sb2 H2 O4 F12"
_cell_length_a       5.174112999999999
_cell_length_b       7.3015345668964695
_cell_length_c       8.134955459169152
_cell_angle_alpha    90.9395314512041
_cell_angle_beta     97.22151606041648
_cell_angle_gamma    91.96796560956827

_space_group_name_H-M_alt    "P 1"
_space_group_IT_number       1

loop_
  _space_group_symop_operation_xyz
  'x, y, z'

loop_
  _atom_site_type_symbol
  _atom_site_label
  _atom_site_symmetry_multiplicity
  _atom_site_fract_x
  _atom_site_fract_y
  _atom_site_fract_z
  _atom_site_occupancy
  Sb  Sb1       1.0  0.13531829341081902  0.892783223054721  0.5934142115002032  1.0000
  Sb  Sb2       1.0  0.3086498785560252  0.8545813303280738  0.9635538313305005  1.0000
  H   H1        1.0  0.16733786213444546  0.8053055371055962  0.5488684679148719  1.0000
  H   H2        1.0  0.08321250439621508  0.7464141052041668  0.20090305246412754  1.0000
  O   O1        1.0  0.7441917523246957  0.43989136815071106  0.16197910869959742  1.0000
  O   O2        1.0  0.2684324362780899  0.8435746604809538  0.352634702809155  1.0000
  O   O3        1.0  0.4498235012870282  0.0075582612480502576  0.942625458992552  1.0000
  O   O4        1.0  0.8993851461564191  0.7304257504292764  0.4872501150239259  1.0000
  F   F1        1.0  0.45679150860814843  0.4495496590388939  0.4474218371906318  1.0000
  F   F2        1.0  0.6479710378189338  0.8343505345110316  0.878816319804173  1.0000
  F   F3        1.0  0.7742664881661767  0.5784354849383817  0.5471560250516632  1.0000
  F   F4        1.0  0.3415551305442932  0.08523347885966359  0.5773304647300392  1.0000
  F   F5        1.0  0.09361167991301045  0.07632524089422077  0.9872774184041191  1.0000
  F   F6        1.0  0.22946209064684808  0.2161583506858733  0.256447736377595  1.0000
  F   F7        1.0  0.37056465429486707  0.7653299828525633  0.22456018497268815  1.0000
  F   F8        1.0  0.826127951964736  0.10332019452471286  0.4642039972823113  1.0000
  F   F9        1.0  0.560843938292237  0.666603829136875  0.37597021412148024  1.0000
  F   F10       1.0  0.6253906627534889  0.2997821385797579  0.8670974923443282  1.0000
  F   F11       1.0  0.003487811227387283  0.48344890782027505  0.6937140454392647  1.0000
  F   F12       1.0  0.6561021480529234  0.7524222287465818  0.573501917795511  1.0000
data_image78
_chemical_formula_structural       Sb2H2O4F12
_chemical_formula_sum              "Sb2 H2 O4 F12"
_cell_length_a       5.174112999999999
_cell_length_b       7.3015345668964695
_cell_length_c       8.134955459169152
_cell_angle_alpha    90.9395314512041
_cell_angle_beta     97.22151606041648
_cell_angle_gamma    91.96796560956827

_space_group_name_H-M_alt    "P 1"
_space_group_IT_number       1

loop_
  _space_group_symop_operation_xyz
  'x, y, z'

loop_
  _atom_site_type_symbol
  _atom_site_label
  _atom_site_symmetry_multiplicity
  _atom_site_fract_x
  _atom_site_fract_y
  _atom_site_fract_z
  _atom_site_occupancy
  Sb  Sb1       1.0  0.9926447049365379  0.03281485002662521  0.8684726096689701  1.0000
  Sb  Sb2       1.0  0.3416204759851098  0.5073366372234887  0.5553193811138044  1.0000
  H   H1        1.0  0.6538018287392333  0.9024857030744897  0.8923378904582933  1.0000
  H   H2        1.0  0.5709051766898483  0.6902307033014949  0.17307779716793448  1.0000
  O   O1        1.0  0.7420815528021194  0.3719634582521394  0.14611835725372657  1.0000
  O   O2        1.0  0.0724823382915929  0.7901873041409999  0.04020605073310435  1.0000
  O   O3        1.0  0.1294716593110934  0.6774550137633923  0.9577411845093593  1.0000
  O   O4        1.0  0.505365689547034  0.5097416627686471  0.0380249060690403  1.0000
  F   F1        1.0  0.7370757588068955  0.7662036145920865  0.7968826904689195  1.0000
  F   F2        1.0  0.9746831499796826  0.20466220687376335  0.433834659463173  1.0000
  F   F3        1.0  0.8312183889211155  0.28362556152569596  0.41196585877332836  1.0000
  F   F4        1.0  0.6446770488182665  0.5566477438460424  0.31363448553020135  1.0000
  F   F5        1.0  0.897448459872976  0.4016052866645623  0.8753148262621835  1.0000
  F   F6        1.0  0.6436215171124786  0.5930249887242098  0.34252074599498883  1.0000
  F   F7        1.0  0.7501066062395694  0.16438419073529076  0.5060614697486017  1.0000
  F   F8        1.0  0.39675559534225613  0.476463370869169  0.38260700670070946  1.0000
  F   F9        1.0  0.7005093722691527  0.6668428874982055  0.4101433300857025  1.0000
  F   F10       1.0  0.661977568641305  0.9846616791037377  0.5242768973694183  1.0000
  F   F11       1.0  0.2863031273591332  0.7414511491951998  0.2069321142262197  1.0000
  F   F12       1.0  0.4057464748257189  0.1901435640247655  0.30648715724237263  1.0000
data_image79
_chemical_formula_structural       Sb2H2O4F12
_chemical_formula_sum              "Sb2 H2 O4 F12"
_cell_length_a       5.174112999999999
_cell_length_b       7.3015345668964695
_cell_length_c       8.134955459169152
_cell_angle_alpha    90.9395314512041
_cell_angle_beta     97.22151606041648
_cell_angle_gamma    91.96796560956827

_space_group_name_H-M_alt    "P 1"
_space_group_IT_number       1

loop_
  _space_group_symop_operation_xyz
  'x, y, z'

loop_
  _atom_site_type_symbol
  _atom_site_label
  _atom_site_symmetry_multiplicity
  _atom_site_fract_x
  _atom_site_fract_y
  _atom_site_fract_z
  _atom_site_occupancy
  Sb  Sb1       1.0  0.8506888223055284  0.2557523726572981  0.04944240831537172  1.0000
  Sb  Sb2       1.0  0.6176918529090472  0.07576907966722501  0.9495945222879527  1.0000
  H   H1        1.0  0.4713429369730875  0.5318123124889098  0.5566261758795008  1.0000
  H   H2        1.0  0.5086183391977102  0.3621475291438401  0.7156377027276903  1.0000
  O   O1        1.0  0.30168502655578777  0.23531031142920256  0.07511921948753297  1.0000
  O   O2        1.0  0.7246540988853667  0.5508196894079447  0.9791861923295073  1.0000
  O   O3        1.0  0.250657003140077  0.1398119103978388  0.9685326891485602  1.0000
  O   O4        1.0  0.1757782249333104  0.806253960414324  0.708529959898442  1.0000
  F   F1        1.0  0.9025662709027529  0.5835398831404746  0.6506394346506568  1.0000
  F   F2        1.0  0.26736765474197455  0.8948617252463009  0.4399442304593322  1.0000
  F   F3        1.0  0.6429527712898562  0.3126653829604038  0.2425346388190519  1.0000
  F   F4        1.0  0.2933842396232649  0.06482529568620521  0.9907308587571606  1.0000
  F   F5        1.0  0.6445580048020929  0.8738257189979777  0.8043435385188786  1.0000
  F   F6        1.0  0.9699627810623497  0.9758114221276628  0.9266087952273665  1.0000
  F   F7        1.0  0.21035451188436127  0.21390599069127347  0.5817778866512526  1.0000
  F   F8        1.0  0.46495666075497866  0.8690294197003823  0.8198725402471609  1.0000
  F   F9        1.0  0.37768737044825684  0.3238809939866769  0.46072142112097936  1.0000
  F   F10       1.0  0.904055728635285  0.8763904219958931  0.14813227450940758  1.0000
  F   F11       1.0  0.32711777196163894  0.034548187686596066  0.12706190113385674  1.0000
  F   F12       1.0  0.2369564125474426  0.5518143704975955  0.8212860630301293  1.0000
data_image80
_chemical_formula_structural       Sb2H2O4F12
_chemical_formula_sum              "Sb2 H2 O4 F12"
_cell_length_a       5.174112999999999
_cell_length_b       7.3015345668964695
_cell_length_c       8.134955459169152
_cell_angle_alpha    90.9395314512041
_cell_angle_beta     97.22151606041648
_cell_angle_gamma    91.96796560956827

_space_group_name_H-M_alt    "P 1"
_space_group_IT_number       1

loop_
  _space_group_symop_operation_xyz
  'x, y, z'

loop_
  _atom_site_type_symbol
  _atom_site_label
  _atom_site_symmetry_multiplicity
  _atom_site_fract_x
  _atom_site_fract_y
  _atom_site_fract_z
  _atom_site_occupancy
  Sb  Sb1       1.0  0.7783356589497998  0.20129017518775072  0.3592878755298443  1.0000
  Sb  Sb2       1.0  0.42012128690839745  0.0748535113671096  0.11081687714613508  1.0000
  H   H1        1.0  0.03069881396368146  0.8676857354439562  0.2290339358150959  1.0000
  H   H2        1.0  0.6916986114811152  0.7660240350815002  0.7945973015157506  1.0000
  O   O1        1.0  0.5793999246088788  0.5438512379769236  0.9072189692524262  1.0000
  O   O2        1.0  0.8233334852266125  0.3292159528937191  0.21871225099312142  1.0000
  O   O3        1.0  0.20609376474749297  0.11404915855382569  0.11411380482604727  1.0000
  O   O4        1.0  0.6760279113514116  0.7406228065956384  0.02579627960221842  1.0000
  F   F1        1.0  0.8563728760927916  0.17799645254854113  0.7344819397258107  1.0000
  F   F2        1.0  0.6883783506345935  0.16440023138420656  0.8139830138952675  1.0000
  F   F3        1.0  0.9244086971884826  0.716203747828331  0.9296932380457292  1.0000
  F   F4        1.0  0.07701273831480648  0.9061698078885456  0.7085015527554788  1.0000
  F   F5        1.0  0.48928871733369306  0.027045016118790954  0.9698622063588118  1.0000
  F   F6        1.0  0.766201373655349  0.34074777963542147  0.830392141273478  1.0000
  F   F7        1.0  0.2772983446957369  0.25763862347230315  0.07071249056389206  1.0000
  F   F8        1.0  0.828900660504587  0.6908574642438907  0.9067303261836059  1.0000
  F   F9        1.0  0.395612477674149  0.1772922384479898  0.18370432806113968  1.0000
  F   F10       1.0  0.895028657221701  0.652622907597106  0.2320694415247999  1.0000
  F   F11       1.0  0.2278924728743732  0.498382459016284  0.15195634996780427  1.0000
  F   F12       1.0  0.2902199145028135  0.14773520691232989  0.03004954644711688  1.0000
data_image81
_chemical_formula_structural       Sb2H2O4F12
_chemical_formula_sum              "Sb2 H2 O4 F12"
_cell_length_a       5.174112999999999
_cell_length_b       7.3015345668964695
_cell_length_c       8.134955459169152
_cell_angle_alpha    90.9395314512041
_cell_angle_beta     97.22151606041648
_cell_angle_gamma    91.96796560956827

_space_group_name_H-M_alt    "P 1"
_space_group_IT_number       1

loop_
  _space_group_symop_operation_xyz
  'x, y, z'

loop_
  _atom_site_type_symbol
  _atom_site_label
  _atom_site_symmetry_multiplicity
  _atom_site_fract_x
  _atom_site_fract_y
  _atom_site_fract_z
  _atom_site_occupancy
  Sb  Sb1       1.0  0.9707952167227631  0.5725360046635615  0.07897950601181947  1.0000
  Sb  Sb2       1.0  0.22383682391955517  0.2405086003273027  0.44748201814945787  1.0000
  H   H1        1.0  0.9001961151370779  0.2956210908596404  0.8937088842503726  1.0000
  H   H2        1.0  0.577608973486349  0.6269254395156167  0.21994960075244308  1.0000
  O   O1        1.0  0.39144498025416397  0.45917153207119554  0.2211308658006601  1.0000
  O   O2        1.0  0.3382438058324624  0.8806535786134191  0.6621925950748846  1.0000
  O   O3        1.0  0.9305227457662113  0.35636138907284476  0.2554888728191145  1.0000
  O   O4        1.0  0.9864917397062527  0.8436111409100704  0.0002286942908540368  1.0000
  F   F1        1.0  0.0852162171213422  0.39957451017107815  0.8953870037512388  1.0000
  F   F2        1.0  0.35484697375795804  0.1977318295976147  0.09620529337917105  1.0000
  F   F3        1.0  0.06198925495846197  0.13941044597413565  0.5476134417403955  1.0000
  F   F4        1.0  0.30276718681125203  0.7973874379795234  0.41768293164204806  1.0000
  F   F5        1.0  0.8136675778077915  0.41596621280768886  0.49162004282698035  1.0000
  F   F6        1.0  0.49531867471523583  0.2208341941368417  0.6925443620712031  1.0000
  F   F7        1.0  0.4777588896031375  0.3083417150337482  0.1258117739998852  1.0000
  F   F8        1.0  0.8783638192107901  0.36342021272866987  0.26310558966360986  1.0000
  F   F9        1.0  0.7577082228526706  0.2967504906919203  0.25241274288782733  1.0000
  F   F10       1.0  0.6185581394820474  0.2927199864934664  0.5042262440983905  1.0000
  F   F11       1.0  0.7599809648463633  0.6725368257320952  0.47661817092011916  1.0000
  F   F12       1.0  0.36561666060151765  0.23030891308007995  0.24851112111355178  1.0000
data_image82
_chemical_formula_structural       Sb2H2O4F12
_chemical_formula_sum              "Sb2 H2 O4 F12"
_cell_length_a       5.174112999999999
_cell_length_b       7.3015345668964695
_cell_length_c       8.134955459169152
_cell_angle_alpha    90.9395314512041
_cell_angle_beta     97.22151606041648
_cell_angle_gamma    91.96796560956827

_space_group_name_H-M_alt    "P 1"
_space_group_IT_number       1

loop_
  _space_group_symop_operation_xyz
  'x, y, z'

loop_
  _atom_site_type_symbol
  _atom_site_label
  _atom_site_symmetry_multiplicity
  _atom_site_fract_x
  _atom_site_fract_y
  _atom_site_fract_z
  _atom_site_occupancy
  Sb  Sb1       1.0  0.3264019101043232  0.2076470550528029  0.4768628256570082  1.0000
  Sb  Sb2       1.0  0.9787503604893573  0.19903090161824366  0.9299058451433666  1.0000
  H   H1        1.0  0.292186705279164  0.1716051125258673  0.6528836480574682  1.0000
  H   H2        1.0  0.5689949514344335  0.4637869369762484  0.9246508040232584  1.0000
  O   O1        1.0  0.708549871458672  0.9045164422132075  0.45734688569791615  1.0000
  O   O2        1.0  0.2629058673628606  0.3202680153772235  0.21792754420312122  1.0000
  O   O3        1.0  0.7246427487698384  0.8792635566496756  0.11456075619207695  1.0000
  O   O4        1.0  0.7869181025016587  0.4319797688513063  0.887420705286786  1.0000
  F   F1        1.0  0.7085936274088454  0.13722763111582026  0.9390075882256497  1.0000
  F   F2        1.0  0.9039555543276947  0.8367772349738516  0.8634206551546413  1.0000
  F   F3        1.0  0.13855461528874002  0.16695872077616514  0.9786633729527239  1.0000
  F   F4        1.0  0.6024872533744201  0.27687829552814947  0.422509579337202  1.0000
  F   F5        1.0  0.835922054538969  0.557117232325254  0.667568582444801  1.0000
  F   F6        1.0  0.04734539450146258  0.03983968120201098  0.9619540153507842  1.0000
  F   F7        1.0  0.458958927236381  0.2362612848810386  0.9967646314689773  1.0000
  F   F8        1.0  0.6631350097013637  0.38352748288889416  0.8727339244796894  1.0000
  F   F9        1.0  0.8796904208429623  0.3915067199632176  0.01368215403999784  1.0000
  F   F10       1.0  0.43084569415077567  0.9121261133986991  0.16184639376297127  1.0000
  F   F11       1.0  0.00630499474118551  0.10835734204738401  0.4042771633612574  1.0000
  F   F12       1.0  0.560586845051148  0.244369318268582  0.24995697516715154  1.0000
data_image83
_chemical_formula_structural       Sb2H2O4F12
_chemical_formula_sum              "Sb2 H2 O4 F12"
_cell_length_a       5.174112999999999
_cell_length_b       7.3015345668964695
_cell_length_c       8.134955459169152
_cell_angle_alpha    90.9395314512041
_cell_angle_beta     97.22151606041648
_cell_angle_gamma    91.96796560956827

_space_group_name_H-M_alt    "P 1"
_space_group_IT_number       1

loop_
  _space_group_symop_operation_xyz
  'x, y, z'

loop_
  _atom_site_type_symbol
  _atom_site_label
  _atom_site_symmetry_multiplicity
  _atom_site_fract_x
  _atom_site_fract_y
  _atom_site_fract_z
  _atom_site_occupancy
  Sb  Sb1       1.0  0.19566752322134562  0.6665813105355483  0.9929260722128674  1.0000
  Sb  Sb2       1.0  0.6918830348004121  0.5963770187299815  0.02929019439034164  1.0000
  H   H1        1.0  0.948238535434939  0.23885128245456144  0.1934267356991768  1.0000
  H   H2        1.0  0.2519900035113096  0.2235384802625049  0.7807284751906991  1.0000
  O   O1        1.0  0.317885730524722  0.852187242009677  0.30744218674954027  1.0000
  O   O2        1.0  0.8073470635572448  0.117517014965415  0.9190667556249537  1.0000
  O   O3        1.0  0.27012796280905604  0.8401899946766207  0.7587414245936088  1.0000
  O   O4        1.0  0.9660501897305949  0.4721108688390814  0.534164352924563  1.0000
  F   F1        1.0  0.24054169171722606  0.5800098556792364  0.44588969378673937  1.0000
  F   F2        1.0  0.09081780462292954  0.11418441776186228  0.6348245212302572  1.0000
  F   F3        1.0  0.2502814184699673  0.26961345196286857  0.08059144648723304  1.0000
  F   F4        1.0  0.4075347990146838  0.8111673217572388  0.6420657563721761  1.0000
  F   F5        1.0  0.6710483869537711  0.7578530084283557  0.3817852531792596  1.0000
  F   F6        1.0  0.31491829082369804  0.28548124021745025  0.9578494165325537  1.0000
  F   F7        1.0  0.2673319790192181  0.1595077827514615  0.9720297245366964  1.0000
  F   F8        1.0  0.31165018549654633  0.3367984456708655  0.6864283705945127  1.0000
  F   F9        1.0  0.48378791869618  0.6000905179098481  0.7851473982591415  1.0000
  F   F10       1.0  0.7406899391207844  0.5136861976643559  0.570465847151354  1.0000
  F   F11       1.0  0.3979382885117957  0.49628385168034583  0.06869973666471196  1.0000
  F   F12       1.0  0.6824947522109142  0.7160112262208713  0.2671759187069256  1.0000
data_image84
_chemical_formula_structural       Sb2H2O4F12
_chemical_formula_sum              "Sb2 H2 O4 F12"
_cell_length_a       5.174112999999999
_cell_length_b       7.3015345668964695
_cell_length_c       8.134955459169152
_cell_angle_alpha    90.9395314512041
_cell_angle_beta     97.22151606041648
_cell_angle_gamma    91.96796560956827

_space_group_name_H-M_alt    "P 1"
_space_group_IT_number       1

loop_
  _space_group_symop_operation_xyz
  'x, y, z'

loop_
  _atom_site_type_symbol
  _atom_site_label
  _atom_site_symmetry_multiplicity
  _atom_site_fract_x
  _atom_site_fract_y
  _atom_site_fract_z
  _atom_site_occupancy
  Sb  Sb1       1.0  0.05544043594272807  0.2951536048858543  0.43842741710250266  1.0000
  Sb  Sb2       1.0  0.5449534280633088  0.3857006053367513  0.9965493888958008  1.0000
  H   H1        1.0  0.743069059913978  0.10868462201324292  0.05633997265249491  1.0000
  H   H2        1.0  0.20242284168489277  0.6899315810005646  0.6281573303276673  1.0000
  O   O1        1.0  0.5730604146592668  0.6854151340667158  0.43852536694612354  1.0000
  O   O2        1.0  0.18564247782342136  0.7924069541040808  0.2782943659112789  1.0000
  O   O3        1.0  0.40753345389384776  0.33807004167465493  0.9221896564122289  1.0000
  O   O4        1.0  0.8288992395828245  0.17605530703440309  0.8510113540105522  1.0000
  F   F1        1.0  0.5069260460149962  0.96653693477856  0.6051272509066621  1.0000
  F   F2        1.0  0.8702465947135352  0.5839392979396507  0.6168334140093066  1.0000
  F   F3        1.0  0.637120416999096  0.9868099607092518  0.9844959183828905  1.0000
  F   F4        1.0  0.5191812681150623  0.6781047508247866  0.62271852302365  1.0000
  F   F5        1.0  0.28272048762300983  0.8673223590885755  0.09980799141339958  1.0000
  F   F6        1.0  0.34599137119948864  0.3951647759095067  0.23804363339877455  1.0000
  F   F7        1.0  0.4485364682459476  0.4432722288474906  0.3702891275388538  1.0000
  F   F8        1.0  0.14048099610954523  0.8490595832117833  0.3700398219516501  1.0000
  F   F9        1.0  0.1659183250303613  0.639228689171432  0.2777257144043688  1.0000
  F   F10       1.0  0.17863210593350232  0.7822093417344149  0.6458730660087895  1.0000
  F   F11       1.0  0.508168886130079  0.11699247150681913  0.6966413473637658  1.0000
  F   F12       1.0  0.6674213565856917  0.8760159124067286  0.21682298241648823  1.0000
data_image85
_chemical_formula_structural       Sb2H2O4F12
_chemical_formula_sum              "Sb2 H2 O4 F12"
_cell_length_a       5.174112999999999
_cell_length_b       7.3015345668964695
_cell_length_c       8.134955459169152
_cell_angle_alpha    90.9395314512041
_cell_angle_beta     97.22151606041648
_cell_angle_gamma    91.96796560956827

_space_group_name_H-M_alt    "P 1"
_space_group_IT_number       1

loop_
  _space_group_symop_operation_xyz
  'x, y, z'

loop_
  _atom_site_type_symbol
  _atom_site_label
  _atom_site_symmetry_multiplicity
  _atom_site_fract_x
  _atom_site_fract_y
  _atom_site_fract_z
  _atom_site_occupancy
  Sb  Sb1       1.0  0.7014966032002121  0.37228391399548855  0.858649911620887  1.0000
  Sb  Sb2       1.0  0.49031318665947765  0.7094471828313544  0.3710244678077288  1.0000
  H   H1        1.0  0.6821776145370677  0.53674258281535  0.6449921756284311  1.0000
  H   H2        1.0  0.970969005022198  0.6994275376782753  0.2556054519955069  1.0000
  O   O1        1.0  0.6437331823108252  0.7370478116208687  0.45924580772407353  1.0000
  O   O2        1.0  0.5556273270631209  0.7380923562450334  0.20886063628131524  1.0000
  O   O3        1.0  0.2748295406345278  0.556005095342698  0.8236417641746812  1.0000
  O   O4        1.0  0.29020731872151373  0.6480003130855039  0.11175797937903553  1.0000
  F   F1        1.0  0.811829440848669  0.8265192215330899  0.6654370256583206  1.0000
  F   F2        1.0  0.3991139288118575  0.47697590952157043  0.9463541197728773  1.0000
  F   F3        1.0  0.9469363566749962  0.27232364193150715  0.22415040610940196  1.0000
  F   F4        1.0  0.40253211359959096  0.8165704768180149  0.3748474602471106  1.0000
  F   F5        1.0  0.798686092835851  0.7063962395477574  0.6888046087769908  1.0000
  F   F6        1.0  0.6899744041729718  0.4927686252776766  0.17936300469591515  1.0000
  F   F7        1.0  0.9814558836401375  0.6767871297197416  0.22228363130852813  1.0000
  F   F8        1.0  0.9956409635487944  0.8605597724963445  0.6344372614985332  1.0000
  F   F9        1.0  0.7904243287630379  0.19348774990066886  0.9584594641637523  1.0000
  F   F10       1.0  0.11919365875655785  0.1328019351058174  0.597915414837189  1.0000
  F   F11       1.0  0.35138353601541894  0.6313479483069386  0.9702707961841952  1.0000
  F   F12       1.0  0.09018016007030383  0.630686597985914  0.18051201762864366  1.0000
data_image86
_chemical_formula_structural       Sb2H2O4F12
_chemical_formula_sum              "Sb2 H2 O4 F12"
_cell_length_a       5.174112999999999
_cell_length_b       7.3015345668964695
_cell_length_c       8.134955459169152
_cell_angle_alpha    90.9395314512041
_cell_angle_beta     97.22151606041648
_cell_angle_gamma    91.96796560956827

_space_group_name_H-M_alt    "P 1"
_space_group_IT_number       1

loop_
  _space_group_symop_operation_xyz
  'x, y, z'

loop_
  _atom_site_type_symbol
  _atom_site_label
  _atom_site_symmetry_multiplicity
  _atom_site_fract_x
  _atom_site_fract_y
  _atom_site_fract_z
  _atom_site_occupancy
  Sb  Sb1       1.0  0.5084405279776547  0.5463013101907563  0.10847650191863067  1.0000
  Sb  Sb2       1.0  0.12038921267958358  0.299553094417206  0.3613997881184332  1.0000
  H   H1        1.0  0.6199762992328033  0.6720639548584586  0.014990945579484105  1.0000
  H   H2        1.0  0.6762677100487053  0.17063649822375737  0.25539136747829616  1.0000
  O   O1        1.0  0.034512902922870126  0.04846015712246299  0.6689458609325811  1.0000
  O   O2        1.0  0.9167676179204136  0.3375616248231381  0.9236088881734759  1.0000
  O   O3        1.0  0.4028892929200083  0.4174480843284982  0.5607675088685937  1.0000
  O   O4        1.0  0.7905747470431379  0.09794342482928187  0.4268383097369224  1.0000
  F   F1        1.0  0.1495173149742186  0.8776541478000581  0.47951500726048835  1.0000
  F   F2        1.0  0.32752689538756385  0.13228618202265352  0.8885434414387419  1.0000
  F   F3        1.0  0.831276183234877  0.8890400422869789  0.8538413076312281  1.0000
  F   F4        1.0  0.6218073889322113  0.14903880948440928  0.7255193021846935  1.0000
  F   F5        1.0  0.6163467381265946  0.6137621319503523  0.6254431848064996  1.0000
  F   F6        1.0  0.7471490863244981  0.980945859781059  0.09835233054036507  1.0000
  F   F7        1.0  0.2269108358250378  0.3827317200921243  0.6109828004191513  1.0000
  F   F8        1.0  0.16445735655725002  0.24944117583800107  0.02842422522371635  1.0000
  F   F9        1.0  0.11560195985657629  0.055803041424951516  0.08672000363003463  1.0000
  F   F10       1.0  0.4615152456681244  0.7177755028533284  0.23134578614553902  1.0000
  F   F11       1.0  0.5363179401165326  0.4512796996277757  0.4108793112318381  1.0000
  F   F12       1.0  0.3426081593061099  0.6520707194213173  0.8121954100788571  1.0000
data_image87
_chemical_formula_structural       Sb2H2O4F12
_chemical_formula_sum              "Sb2 H2 O4 F12"
_cell_length_a       5.174112999999999
_cell_length_b       7.3015345668964695
_cell_length_c       8.134955459169152
_cell_angle_alpha    90.9395314512041
_cell_angle_beta     97.22151606041648
_cell_angle_gamma    91.96796560956827

_space_group_name_H-M_alt    "P 1"
_space_group_IT_number       1

loop_
  _space_group_symop_operation_xyz
  'x, y, z'

loop_
  _atom_site_type_symbol
  _atom_site_label
  _atom_site_symmetry_multiplicity
  _atom_site_fract_x
  _atom_site_fract_y
  _atom_site_fract_z
  _atom_site_occupancy
  Sb  Sb1       1.0  0.21146414995018858  0.6907434814347653  0.6724664847133681  1.0000
  Sb  Sb2       1.0  0.9106893494026735  0.45602630770008545  0.7916089024001849  1.0000
  H   H1        1.0  0.6198572239372879  0.6077057244547177  0.9919017350766808  1.0000
  H   H2        1.0  0.6003568463493139  0.33271976745163556  0.9096951247192919  1.0000
  O   O1        1.0  0.35240791492833523  0.178879507468082  0.26333933253772557  1.0000
  O   O2        1.0  0.44180916278855875  0.12961198337143287  0.3433666418422945  1.0000
  O   O3        1.0  0.1495699865045026  0.9917777797600138  0.12511404091492295  1.0000
  O   O4        1.0  0.1790631309559103  0.13792183413170278  0.7706815537530929  1.0000
  F   F1        1.0  0.5070904961321503  0.20007547846762463  0.5735696283663856  1.0000
  F   F2        1.0  0.9473703795520123  0.48631168174324557  0.239057877122832  1.0000
  F   F3        1.0  0.027057210012571886  0.6884517133066765  0.42908784179599024  1.0000
  F   F4        1.0  0.6078311141463928  0.5978501271620189  0.5322735848021694  1.0000
  F   F5        1.0  0.6975598533754237  0.34537270953296684  0.3239965313914581  1.0000
  F   F6        1.0  0.19235335499979556  0.6680798004526878  0.6169753692665836  1.0000
  F   F7        1.0  0.8761143086230732  0.5915775911562378  0.5570304596258211  1.0000
  F   F8        1.0  0.46241223299875855  0.49647253411239944  0.6818945867125876  1.0000
  F   F9        1.0  0.08947071840520948  0.812765862159722  0.8773075034696376  1.0000
  F   F10       1.0  0.6647249995148741  0.20853333313425537  0.08287514491530601  1.0000
  F   F11       1.0  0.7335446951815356  0.8159090361732524  0.7623549053314491  1.0000
  F   F12       1.0  0.14700998039916158  0.7462338204859407  0.2860936086217407  1.0000
data_image88
_chemical_formula_structural       Sb2H2O4F12
_chemical_formula_sum              "Sb2 H2 O4 F12"
_cell_length_a       5.174112999999999
_cell_length_b       7.3015345668964695
_cell_length_c       8.134955459169152
_cell_angle_alpha    90.9395314512041
_cell_angle_beta     97.22151606041648
_cell_angle_gamma    91.96796560956827

_space_group_name_H-M_alt    "P 1"
_space_group_IT_number       1

loop_
  _space_group_symop_operation_xyz
  'x, y, z'

loop_
  _atom_site_type_symbol
  _atom_site_label
  _atom_site_symmetry_multiplicity
  _atom_site_fract_x
  _atom_site_fract_y
  _atom_site_fract_z
  _atom_site_occupancy
  Sb  Sb1       1.0  0.167480633885134  0.02680441913253162  0.5912324705859646  1.0000
  Sb  Sb2       1.0  0.458270127302967  0.29785098342836136  0.35577768101939  1.0000
  H   H1        1.0  0.8354449055623263  0.2506942728650756  0.8127339213388041  1.0000
  H   H2        1.0  0.6122679789550602  0.4514681131404359  0.7768955909414217  1.0000
  O   O1        1.0  0.05409902910832898  0.5757913823472336  0.9022125903284177  1.0000
  O   O2        1.0  0.6259009187924676  0.401155810628552  0.5987678303499706  1.0000
  O   O3        1.0  0.1785291553242132  0.06348128517129226  0.05282695684581995  1.0000
  O   O4        1.0  0.2761327807820635  0.3480147327063605  0.7323358431458473  1.0000
  F   F1        1.0  0.7283062800124753  0.8566633252776228  0.6317321587412152  1.0000
  F   F2        1.0  0.8177469773218036  0.40387836334411986  0.1874263765548676  1.0000
  F   F3        1.0  0.3054873608343769  0.23803800705172762  0.9802062061498873  1.0000
  F   F4        1.0  0.3231963040016126  0.16604430786992452  0.02498467284021899  1.0000
  F   F5        1.0  0.24020904791541398  0.2227054943505209  0.9050577830639668  1.0000
  F   F6        1.0  0.18459816230461001  0.6170598447570228  0.7544441940117395  1.0000
  F   F7        1.0  0.21246045737643726  0.17944610603808542  0.17205136865231907  1.0000
  F   F8        1.0  0.22617093462031335  0.24954586336389184  0.1781448601395823  1.0000
  F   F9        1.0  0.5125079517310951  0.7169298804001301  0.6449798219837248  1.0000
  F   F10       1.0  0.11256756592774764  0.3367618253250839  0.6852133101492655  1.0000
  F   F11       1.0  0.38748938298738267  0.9179251750465482  0.8305025752124493  1.0000
  F   F12       1.0  0.7434905268746661  0.8217575814342126  0.4673702532891184  1.0000
data_image89
_chemical_formula_structural       Sb2H2O4F12
_chemical_formula_sum              "Sb2 H2 O4 F12"
_cell_length_a       5.174112999999999
_cell_length_b       7.3015345668964695
_cell_length_c       8.134955459169152
_cell_angle_alpha    90.9395314512041
_cell_angle_beta     97.22151606041648
_cell_angle_gamma    91.96796560956827

_space_group_name_H-M_alt    "P 1"
_space_group_IT_number       1

loop_
  _space_group_symop_operation_xyz
  'x, y, z'

loop_
  _atom_site_type_symbol
  _atom_site_label
  _atom_site_symmetry_multiplicity
  _atom_site_fract_x
  _atom_site_fract_y
  _atom_site_fract_z
  _atom_site_occupancy
  Sb  Sb1       1.0  0.23157642454316374  0.13219229687092593  0.06488405846175738  1.0000
  Sb  Sb2       1.0  0.6304441038955702  0.47336589276528684  0.9370148091911688  1.0000
  H   H1        1.0  0.7453171267407015  0.8863391679769848  0.7365360696567222  1.0000
  H   H2        1.0  0.5033478918485343  0.979335546027869  0.21775042766239494  1.0000
  O   O1        1.0  0.2737206263373082  0.8801256918814033  0.5745313095394522  1.0000
  O   O2        1.0  0.17599556810455397  0.23774936271365732  0.38148130796616897  1.0000
  O   O3        1.0  0.6666929998900741  0.0838735046054353  0.41754653211683035  1.0000
  O   O4        1.0  0.37226112236385234  0.42558341671247035  0.3227862266357988  1.0000
  F   F1        1.0  0.9514560322277248  0.6618047475349158  0.06336493013077416  1.0000
  F   F2        1.0  0.15019633449264802  0.8445336288132239  0.18480363563867286  1.0000
  F   F3        1.0  0.7974490136548411  0.9862897958264512  0.11847999796736985  1.0000
  F   F4        1.0  0.47607427230104804  0.3195156443216547  0.35500289825722575  1.0000
  F   F5        1.0  0.6203865167917684  0.6368010586302262  0.41611527195345843  1.0000
  F   F6        1.0  0.6415684234816581  0.20308110565383686  0.3818129879218759  1.0000
  F   F7        1.0  0.09590730516356416  0.9589235896582977  0.5813427505017899  1.0000
  F   F8        1.0  0.6371999968541786  0.32780147626181133  0.23345985874766484  1.0000
  F   F9        1.0  0.5454037433373742  0.7352721304778242  0.9742158391745761  1.0000
  F   F10       1.0  0.25493142823688686  0.12670357200840954  0.853924228795222  1.0000
  F   F11       1.0  0.2617192685419951  0.42112601731787436  0.24798367074981797  1.0000
  F   F12       1.0  0.8816156369139208  0.08078152738744393  0.6565212937421165  1.0000
data_image90
_chemical_formula_structural       Sb2H2O4F12
_chemical_formula_sum              "Sb2 H2 O4 F12"
_cell_length_a       5.174112999999999
_cell_length_b       7.3015345668964695
_cell_length_c       8.134955459169152
_cell_angle_alpha    90.9395314512041
_cell_angle_beta     97.22151606041648
_cell_angle_gamma    91.96796560956827

_space_group_name_H-M_alt    "P 1"
_space_group_IT_number       1

loop_
  _space_group_symop_operation_xyz
  'x, y, z'

loop_
  _atom_site_type_symbol
  _atom_site_label
  _atom_site_symmetry_multiplicity
  _atom_site_fract_x
  _atom_site_fract_y
  _atom_site_fract_z
  _atom_site_occupancy
  Sb  Sb1       1.0  0.20349331796751358  0.08917659576400183  0.3180390851048287  1.0000
  Sb  Sb2       1.0  0.7691903814411489  0.2017403054778697  0.21527448695269413  1.0000
  H   H1        1.0  0.46411574294324964  0.33415172244713176  0.876696512568742  1.0000
  H   H2        1.0  0.2804747896734625  0.4303878709033597  0.30838275712449104  1.0000
  O   O1        1.0  0.643594262039187  0.2974226406076923  0.5283607601886615  1.0000
  O   O2        1.0  0.06315504934173077  0.09926448040641844  0.471142508496996  1.0000
  O   O3        1.0  0.23022819531615824  0.19336179918173002  0.18253729346906766  1.0000
  O   O4        1.0  0.35562129731988534  0.8398714524810202  0.9513372639776208  1.0000
  F   F1        1.0  0.6177086805982981  0.4490184907335788  0.25660872786829714  1.0000
  F   F2        1.0  0.5521897575526964  0.2808929676830303  0.6655010210524779  1.0000
  F   F3        1.0  0.6394990496337414  0.046837283414788544  0.8287965470226482  1.0000
  F   F4        1.0  0.41887085436610505  0.40212021935076336  0.20241505274316296  1.0000
  F   F5        1.0  0.1307952524512075  0.25328631832962856  0.36474345520400675  1.0000
  F   F6        1.0  0.6406259681098163  0.16521237340930384  0.49872575895278715  1.0000
  F   F7        1.0  0.12172227008704795  0.7567158215397285  0.10707484426166047  1.0000
  F   F8        1.0  0.412531481240876  0.7610381816630252  0.8552207344328053  1.0000
  F   F9        1.0  0.5030413345084526  0.8348396747460356  0.13725232206343208  1.0000
  F   F10       1.0  0.7399238201323897  0.8629610003699781  0.2461301315925084  1.0000
  F   F11       1.0  0.5628302872619315  0.09475473008933477  0.3026758189225802  1.0000
  F   F12       1.0  0.18844942651048768  0.7679786356166005  0.9537967783107888  1.0000
data_image91
_chemical_formula_structural       Sb2H2O4F12
_chemical_formula_sum              "Sb2 H2 O4 F12"
_cell_length_a       5.174112999999999
_cell_length_b       7.3015345668964695
_cell_length_c       8.134955459169152
_cell_angle_alpha    90.9395314512041
_cell_angle_beta     97.22151606041648
_cell_angle_gamma    91.96796560956827

_space_group_name_H-M_alt    "P 1"
_space_group_IT_number       1

loop_
  _space_group_symop_operation_xyz
  'x, y, z'

loop_
  _atom_site_type_symbol
  _atom_site_label
  _atom_site_symmetry_multiplicity
  _atom_site_fract_x
  _atom_site_fract_y
  _atom_site_fract_z
  _atom_site_occupancy
  Sb  Sb1       1.0  0.6474978448241018  0.16128232987830415  0.6947007667331491  1.0000
  Sb  Sb2       1.0  0.6294157891643408  0.2842567483894527  0.6340664807357825  1.0000
  H   H1        1.0  0.42466980731114745  0.3970045522437431  0.6167587476084009  1.0000
  H   H2        1.0  0.4470665701664984  0.645501310529653  0.19951626111287624  1.0000
  O   O1        1.0  0.5142859351872175  0.3224962158710696  0.9445169022073969  1.0000
  O   O2        1.0  0.9689430664293468  0.668423727620393  0.5309838886605576  1.0000
  O   O3        1.0  0.18700551509391516  0.7627934886404546  0.008296519285067916  1.0000
  O   O4        1.0  0.020054510445334017  0.7192345439107157  0.03238604130456224  1.0000
  F   F1        1.0  0.1841639183985535  0.5982001624070108  0.22998203148017637  1.0000
  F   F2        1.0  0.5628026869962923  0.3158141089370474  0.34295578027376905  1.0000
  F   F3        1.0  0.4783365188341122  0.03988189281517407  0.69139280145464  1.0000
  F   F4        1.0  0.13835488536278717  0.7147420795663493  0.20829519076505676  1.0000
  F   F5        1.0  0.9782526394701563  0.48841322551015764  0.10777834187319968  1.0000
  F   F6        1.0  0.6547343588899821  0.08887967178452527  0.4428272814839147  1.0000
  F   F7        1.0  0.05063031795725692  0.17080182432255242  0.20127822158247  1.0000
  F   F8        1.0  0.2436094346921891  0.19851307361386716  0.06661761383293197  1.0000
  F   F9        1.0  0.7152503815595992  0.31941343982180115  0.33598946896381676  1.0000
  F   F10       1.0  0.5178079089382663  0.2059827577904798  0.5988029873988125  1.0000
  F   F11       1.0  0.9774469708809193  0.598909739026567  0.757626548569533  1.0000
  F   F12       1.0  0.005359135495382361  0.6742600674479036  0.29927321046125144  1.0000
data_image92
_chemical_formula_structural       Sb2H2O4F12
_chemical_formula_sum              "Sb2 H2 O4 F12"
_cell_length_a       5.174112999999999
_cell_length_b       7.3015345668964695
_cell_length_c       8.134955459169152
_cell_angle_alpha    90.9395314512041
_cell_angle_beta     97.22151606041648
_cell_angle_gamma    91.96796560956827

_space_group_name_H-M_alt    "P 1"
_space_group_IT_number       1

loop_
  _space_group_symop_operation_xyz
  'x, y, z'

loop_
  _atom_site_type_symbol
  _atom_site_label
  _atom_site_symmetry_multiplicity
  _atom_site_fract_x
  _atom_site_fract_y
  _atom_site_fract_z
  _atom_site_occupancy
  Sb  Sb1       1.0  0.5584223697369453  0.1927825545280939  0.4495268579630647  1.0000
  Sb  Sb2       1.0  0.43492597270960687  0.7336711882526288  0.8528053052432369  1.0000
  H   H1        1.0  0.1765185035765171  0.9519854335812852  0.34170367557089776  1.0000
  H   H2        1.0  0.7346060737036169  0.5376498451514635  0.19968353770673275  1.0000
  O   O1        1.0  0.07413642883693683  0.3339080021250993  0.4807305809808895  1.0000
  O   O2        1.0  0.7662202366045676  0.5274510888848454  0.8734370652236976  1.0000
  O   O3        1.0  0.9472492986824363  0.49220591568155214  0.40667075343662873  1.0000
  O   O4        1.0  0.18077300823642872  0.36289538972778246  0.8899209769442677  1.0000
  F   F1        1.0  0.7020213241048623  0.0387894464074634  0.008944408720708452  1.0000
  F   F2        1.0  0.8734849171014503  0.3091167644888628  0.8740805770503357  1.0000
  F   F3        1.0  0.2795676844398258  0.8092629038364976  0.06822922489664052  1.0000
  F   F4        1.0  0.5601215288916137  0.5236551705093007  0.6141930145677179  1.0000
  F   F5        1.0  0.49140001874184236  0.5371211629244499  0.72469786892907  1.0000
  F   F6        1.0  0.8400284964591265  0.7716652282761061  0.7377229443882243  1.0000
  F   F7        1.0  0.2515063179016579  0.2858513344908715  0.000679003911500331  1.0000
  F   F8        1.0  0.22134974866639823  0.42295706892036833  0.3796869075158611  1.0000
  F   F9        1.0  0.8446982291061431  0.43670358243980445  0.12701373928575777  1.0000
  F   F10       1.0  0.25481303478591144  0.8247903627780033  0.1950232988456264  1.0000
  F   F11       1.0  0.31189304226791137  0.63819924503332  0.8270336341593065  1.0000
  F   F12       1.0  0.4385142562678084  0.3261831284762593  0.6142682811478153  1.0000
data_image93
_chemical_formula_structural       Sb2H2O4F12
_chemical_formula_sum              "Sb2 H2 O4 F12"
_cell_length_a       5.174112999999999
_cell_length_b       7.3015345668964695
_cell_length_c       8.134955459169152
_cell_angle_alpha    90.9395314512041
_cell_angle_beta     97.22151606041648
_cell_angle_gamma    91.96796560956827

_space_group_name_H-M_alt    "P 1"
_space_group_IT_number       1

loop_
  _space_group_symop_operation_xyz
  'x, y, z'

loop_
  _atom_site_type_symbol
  _atom_site_label
  _atom_site_symmetry_multiplicity
  _atom_site_fract_x
  _atom_site_fract_y
  _atom_site_fract_z
  _atom_site_occupancy
  Sb  Sb1       1.0  0.15830232569715008  0.967594704896328  0.6920661499607377  1.0000
  Sb  Sb2       1.0  0.06174532924342202  0.09678845925373025  0.8057574284030125  1.0000
  H   H1        1.0  0.048831301857717335  0.8050544867292047  0.5012583861825988  1.0000
  H   H2        1.0  0.23993988102301955  0.8849802369513782  0.34128191135823727  1.0000
  O   O1        1.0  0.21631996849282586  0.7937285610241815  0.9077091662911698  1.0000
  O   O2        1.0  0.5233192440937273  0.315131792682223  0.11609313188819215  1.0000
  O   O3        1.0  0.7405806900933385  0.48543427730328403  0.903730052174069  1.0000
  O   O4        1.0  0.5466769026825204  0.3288570068543777  0.3895748756476678  1.0000
  F   F1        1.0  0.025033249927219003  0.7790205904166214  0.17012974667886738  1.0000
  F   F2        1.0  0.054623344098217785  0.9086928767064819  0.23668223078129813  1.0000
  F   F3        1.0  0.6569169167923974  0.7808457339269808  0.5780731307022506  1.0000
  F   F4        1.0  0.053775593027239665  0.6967117673630128  0.1120328662218526  1.0000
  F   F5        1.0  0.24465942446840927  0.8825567099847831  0.3008876507738023  1.0000
  F   F6        1.0  0.2458060949575156  0.9274335125883226  0.049764827330363914  1.0000
  F   F7        1.0  0.29547000757884234  0.11480289087558049  0.7586584030868835  1.0000
  F   F8        1.0  0.8066361643141136  0.843222806637641  0.0860649841488339  1.0000
  F   F9        1.0  0.3642437446687836  0.44798129292030353  0.5203259330155561  1.0000
  F   F10       1.0  0.2902447931119241  0.7295888739608927  0.9146777795685921  1.0000
  F   F11       1.0  0.08455907221832604  0.6653631223016419  0.7859463355853222  1.0000
  F   F12       1.0  0.879386138956761  0.1682819249253953  0.8838288676925004  1.0000
data_image94
_chemical_formula_structural       Sb2H2O4F12
_chemical_formula_sum              "Sb2 H2 O4 F12"
_cell_length_a       5.174112999999999
_cell_length_b       7.3015345668964695
_cell_length_c       8.134955459169152
_cell_angle_alpha    90.9395314512041
_cell_angle_beta     97.22151606041648
_cell_angle_gamma    91.96796560956827

_space_group_name_H-M_alt    "P 1"
_space_group_IT_number       1

loop_
  _space_group_symop_operation_xyz
  'x, y, z'

loop_
  _atom_site_type_symbol
  _atom_site_label
  _atom_site_symmetry_multiplicity
  _atom_site_fract_x
  _atom_site_fract_y
  _atom_site_fract_z
  _atom_site_occupancy
  Sb  Sb1       1.0  0.03735718841198832  0.201642867323244  0.5238867081643548  1.0000
  Sb  Sb2       1.0  0.5531837167072808  0.9007474216487026  0.7241311039542779  1.0000
  H   H1        1.0  0.9032826474867761  0.537953077320708  0.5676618110155687  1.0000
  H   H2        1.0  0.30799987679347396  0.7645649312253227  0.21554857748560607  1.0000
  O   O1        1.0  0.511978555652604  0.8665389582747594  0.4364307376090437  1.0000
  O   O2        1.0  0.6993021100643091  0.4854075752082281  0.8919594092294574  1.0000
  O   O3        1.0  0.6362399876816198  0.24929445516318083  0.39136048790533096  1.0000
  O   O4        1.0  0.9561554694664665  0.8592644764576107  0.6227326009538956  1.0000
  F   F1        1.0  0.05677748302696273  0.7862065839581192  0.44530408133141464  1.0000
  F   F2        1.0  0.5941292595816776  0.14566793220001273  0.4863630875770468  1.0000
  F   F3        1.0  0.11859746805203031  0.8872339270164957  0.10471618998417398  1.0000
  F   F4        1.0  0.5061817307432648  0.9942597714107251  0.9157708043348975  1.0000
  F   F5        1.0  0.9616007196600549  0.33875058428384364  0.6909629949150258  1.0000
  F   F6        1.0  0.9342602849937975  0.14262701266125077  0.6608150707324967  1.0000
  F   F7        1.0  0.8028744323964929  0.3822457775568182  0.4764294547785539  1.0000
  F   F8        1.0  0.0726931324461475  0.7645836014708038  0.6102403585682623  1.0000
  F   F9        1.0  0.4276800160878338  0.2620749751367839  0.031888618250377476  1.0000
  F   F10       1.0  0.862081372004468  0.3861320240976056  0.3740516985708382  1.0000
  F   F11       1.0  0.9590030010149349  0.8024946491932496  0.57586526790692  1.0000
  F   F12       1.0  0.08742670998617541  0.8525470901440713  0.9690599532914348  1.0000
data_image95
_chemical_formula_structural       Sb2H2O4F12
_chemical_formula_sum              "Sb2 H2 O4 F12"
_cell_length_a       5.174112999999999
_cell_length_b       7.3015345668964695
_cell_length_c       8.134955459169152
_cell_angle_alpha    90.9395314512041
_cell_angle_beta     97.22151606041648
_cell_angle_gamma    91.96796560956827

_space_group_name_H-M_alt    "P 1"
_space_group_IT_number       1

loop_
  _space_group_symop_operation_xyz
  'x, y, z'

loop_
  _atom_site_type_symbol
  _atom_site_label
  _atom_site_symmetry_multiplicity
  _atom_site_fract_x
  _atom_site_fract_y
  _atom_site_fract_z
  _atom_site_occupancy
  Sb  Sb1       1.0  0.283956496801693  0.11701341340085492  0.015199950517853722  1.0000
  Sb  Sb2       1.0  0.003889187784807291  0.7499436811485793  0.00668872578535229  1.0000
  H   H1        1.0  0.7302025355165824  0.0748084587539779  0.8582382175372913  1.0000
  H   H2        1.0  0.9894934743642807  0.4756516017296235  0.967497736797668  1.0000
  O   O1        1.0  0.19207458113669418  0.12469242577208206  0.9014670443721116  1.0000
  O   O2        1.0  0.9554567190934904  0.6713515512528829  0.1802443191409111  1.0000
  O   O3        1.0  0.8477248433046043  0.6579423779039644  0.06314201524946839  1.0000
  O   O4        1.0  0.859649253776297  0.007147215306758881  0.9808935637120157  1.0000
  F   F1        1.0  0.03723913250723854  0.7862527136458084  0.15664060503331712  1.0000
  F   F2        1.0  0.9177259901189245  0.07894657301949337  0.5204523844877258  1.0000
  F   F3        1.0  0.5950740164298622  0.57294221885968  0.3208109304177924  1.0000
  F   F4        1.0  0.009318368160165846  0.8975138343521394  0.11938569706398994  1.0000
  F   F5        1.0  0.18697750888532028  0.301159399561584  0.6651328811858548  1.0000
  F   F6        1.0  0.5293837529607117  0.3051035485405009  0.293015024442866  1.0000
  F   F7        1.0  0.38083684087905567  0.9605136011305149  0.6585841608030023  1.0000
  F   F8        1.0  0.7922699823975563  0.9474339135049377  0.5243582522380166  1.0000
  F   F9        1.0  0.3242489349504467  0.3299201489571715  0.9039469751878642  1.0000
  F   F10       1.0  0.5321151112439111  0.2472811596817337  0.3874549482425209  1.0000
  F   F11       1.0  0.7521326049591153  0.592855444032466  0.49242171704099746  1.0000
  F   F12       1.0  0.24380322451179381  0.506527010089485  0.6030916642339434  1.0000
data_image96
_chemical_formula_structural       Sb2H2O4F12
_chemical_formula_sum              "Sb2 H2 O4 F12"
_cell_length_a       5.174112999999999
_cell_length_b       7.3015345668964695
_cell_length_c       8.134955459169152
_cell_angle_alpha    90.9395314512041
_cell_angle_beta     97.22151606041648
_cell_angle_gamma    91.96796560956827

_space_group_name_H-M_alt    "P 1"
_space_group_IT_number       1

loop_
  _space_group_symop_operation_xyz
  'x, y, z'

loop_
  _atom_site_type_symbol
  _atom_site_label
  _atom_site_symmetry_multiplicity
  _atom_site_fract_x
  _atom_site_fract_y
  _atom_site_fract_z
  _atom_site_occupancy
  Sb  Sb1       1.0  0.0142055801989045  0.5531606063887011  0.8009748062468134  1.0000
  Sb  Sb2       1.0  0.5462052948532801  0.8608701862685848  0.1584895166597562  1.0000
  H   H1        1.0  0.0037952892016619444  0.3176263189234305  0.696060354472138  1.0000
  H   H2        1.0  0.5438467368949205  0.7419053044350221  0.7078115934273228  1.0000
  O   O1        1.0  0.7754240939102601  0.3225217629224062  0.7813023974886164  1.0000
  O   O2        1.0  0.43283026391873136  0.18855994625482708  0.9532130568986759  1.0000
  O   O3        1.0  0.8684250080259517  0.32635910049430095  0.1882557690842077  1.0000
  O   O4        1.0  0.25602808824623935  0.9054528482956812  0.3691556303529069  1.0000
  F   F1        1.0  0.8570574909681454  0.1309327032067813  0.9000167015037732  1.0000
  F   F2        1.0  0.9757300317287445  0.5057244342169724  0.47263912309426814  1.0000
  F   F3        1.0  0.4084975903715531  0.09513110300031258  0.9770168768736767  1.0000
  F   F4        1.0  0.6109640969370957  0.8224512534652604  0.18067039345623925  1.0000
  F   F5        1.0  0.9154448850895278  0.05751288618193939  0.9733493748572073  1.0000
  F   F6        1.0  0.12767925835214555  0.38196684129798086  0.07876616789144464  1.0000
  F   F7        1.0  0.2467613022745354  0.021751128551841248  0.03763007850648137  1.0000
  F   F8        1.0  0.5561546056997031  0.9444991993659642  0.6236221344443038  1.0000
  F   F9        1.0  0.8801231716934126  0.6640587503206916  0.7858465000608703  1.0000
  F   F10       1.0  0.20058732869802043  0.457920825923793  0.8572067711065756  1.0000
  F   F11       1.0  0.39513484655071807  0.006028429721482098  0.3909060343139572  1.0000
  F   F12       1.0  0.6474012806720566  0.5825798182486324  0.2953924140019808  1.0000
data_image97
_chemical_formula_structural       Sb2H2O4F12
_chemical_formula_sum              "Sb2 H2 O4 F12"
_cell_length_a       5.174112999999999
_cell_length_b       7.3015345668964695
_cell_length_c       8.134955459169152
_cell_angle_alpha    90.9395314512041
_cell_angle_beta     97.22151606041648
_cell_angle_gamma    91.96796560956827

_space_group_name_H-M_alt    "P 1"
_space_group_IT_number       1

loop_
  _space_group_symop_operation_xyz
  'x, y, z'

loop_
  _atom_site_type_symbol
  _atom_site_label
  _atom_site_symmetry_multiplicity
  _atom_site_fract_x
  _atom_site_fract_y
  _atom_site_fract_z
  _atom_site_occupancy
  Sb  Sb1       1.0  0.9635375047510024  0.10194765838969033  0.478695725556463  1.0000
  Sb  Sb2       1.0  0.6311365262699837  0.2964770488033537  0.44259372558735777  1.0000
  H   H1        1.0  0.029984731343574822  0.6838113328558393  0.1046298259170726  1.0000
  H   H2        1.0  0.9419415267184377  0.9174535277779796  0.9862567269010469  1.0000
  O   O1        1.0  0.913019429470296  0.8315963441855274  0.5595122525701299  1.0000
  O   O2        1.0  0.5318323576357216  0.5919878007262014  0.4059572797268629  1.0000
  O   O3        1.0  0.367085060919635  0.7317846457590349  0.20917997864307836  1.0000
  O   O4        1.0  0.5595437557785772  0.8275659726932645  0.5688953086500987  1.0000
  F   F1        1.0  0.40314721179311164  0.6119149542064406  0.33782544901623623  1.0000
  F   F2        1.0  0.3775860872119665  0.31025339076586533  0.6856463919975795  1.0000
  F   F3        1.0  0.9418426767879282  0.16916802496052696  0.06024142587557435  1.0000
  F   F4        1.0  0.13954909991298337  0.8386338625132339  0.14140663109719753  1.0000
  F   F5        1.0  0.8970039554405957  0.83342068514321  0.06706456060783239  1.0000
  F   F6        1.0  0.44302771892398596  0.18183970272366423  0.8637084541987861  1.0000
  F   F7        1.0  0.8347834677115316  0.6216159219911788  0.2723056378235924  1.0000
  F   F8        1.0  0.6386567133013159  0.6288385284715332  0.35840596858179197  1.0000
  F   F9        1.0  0.4645451004325878  0.10352125916688237  0.0909399408265017  1.0000
  F   F10       1.0  0.5160326462937519  0.29795540487975813  0.23112847171432804  1.0000
  F   F11       1.0  0.5878598964663979  0.9375353943905793  0.438014935440151  1.0000
  F   F12       1.0  0.27234904098440893  0.19422405917430297  0.46282134935609065  1.0000
data_image98
_chemical_formula_structural       Sb2H2O4F12
_chemical_formula_sum              "Sb2 H2 O4 F12"
_cell_length_a       5.174112999999999
_cell_length_b       7.3015345668964695
_cell_length_c       8.134955459169152
_cell_angle_alpha    90.9395314512041
_cell_angle_beta     97.22151606041648
_cell_angle_gamma    91.96796560956827

_space_group_name_H-M_alt    "P 1"
_space_group_IT_number       1

loop_
  _space_group_symop_operation_xyz
  'x, y, z'

loop_
  _atom_site_type_symbol
  _atom_site_label
  _atom_site_symmetry_multiplicity
  _atom_site_fract_x
  _atom_site_fract_y
  _atom_site_fract_z
  _atom_site_occupancy
  Sb  Sb1       1.0  0.5020086980075575  0.030737840846995823  0.8988634949782863  1.0000
  Sb  Sb2       1.0  0.07776157461921684  0.5757388584897853  0.5672380455362145  1.0000
  H   H1        1.0  0.43434905039612204  0.9338365239818813  0.950660613249056  1.0000
  H   H2        1.0  0.6155539304018021  0.6683566005740431  0.6381619818275794  1.0000
  O   O1        1.0  0.7847497178299818  0.6597717653494328  0.14699346583802253  1.0000
  O   O2        1.0  0.8336671020369977  0.7066379219759256  0.48722617607563734  1.0000
  O   O3        1.0  0.6838779717218131  0.08586465104599483  0.5388438405934721  1.0000
  O   O4        1.0  0.9417432800983079  0.3425797822419554  0.3677401408785954  1.0000
  F   F1        1.0  0.5125925182364881  0.6370176484342664  0.3846134356572293  1.0000
  F   F2        1.0  0.7597530568018556  0.5018537601281423  0.5463488836539909  1.0000
  F   F3        1.0  0.05047388888488058  0.8431287856692506  0.736860395540134  1.0000
  F   F4        1.0  0.6074157947296044  0.007204109366284683  0.7029871744452976  1.0000
  F   F5        1.0  0.86148334358586  0.7617277005047072  0.522427892392443  1.0000
  F   F6        1.0  0.4124227277934551  0.1526666089121136  0.6937534038879676  1.0000
  F   F7        1.0  0.08283047153963707  0.41336237267023535  0.5944594765460351  1.0000
  F   F8        1.0  0.5570238789077848  0.7843567905947566  0.8225046923471382  1.0000
  F   F9        1.0  0.6691783661954105  0.04411015777441207  0.29323647580167744  1.0000
  F   F10       1.0  0.13496947445673868  0.5611213611991843  0.34228483781043906  1.0000
  F   F11       1.0  0.14260001637012465  0.09649787275702693  0.012580549344420433  1.0000
  F   F12       1.0  0.3853648387012072  0.6439266083907569  0.02979568505543284  1.0000
data_image99
_chemical_formula_structural       Sb2H2O4F12
_chemical_formula_sum              "Sb2 H2 O4 F12"
_cell_length_a       5.174112999999999
_cell_length_b       7.3015345668964695
_cell_length_c       8.134955459169152
_cell_angle_alpha    90.9395314512041
_cell_angle_beta     97.22151606041648
_cell_angle_gamma    91.96796560956827

_space_group_name_H-M_alt    "P 1"
_space_group_IT_number       1

loop_
  _space_group_symop_operation_xyz
  'x, y, z'

loop_
  _atom_site_type_symbol
  _atom_site_label
  _atom_site_symmetry_multiplicity
  _atom_site_fract_x
  _atom_site_fract_y
  _atom_site_fract_z
  _atom_site_occupancy
  Sb  Sb1       1.0  0.09850187413394451  0.022346226251102053  0.6773951637733262  1.0000
  Sb  Sb2       1.0  0.30278337522395304  0.1652487732062582  0.7275109736219747  1.0000
  H   H1        1.0  0.23410794977098703  0.15268036533962004  0.02573872241191566  1.0000
  H   H2        1.0  0.2544641983695328  0.6137490360124502  0.6949574697064236  1.0000
  O   O1        1.0  0.11249236100411508  0.45320211013313383  0.12226667336653918  1.0000
  O   O2        1.0  0.42295427876524627  0.39850545034278184  0.2943879690137692  1.0000
  O   O3        1.0  0.4829354233806953  0.996429099526722  0.9565611841680948  1.0000
  O   O4        1.0  0.3649907211656682  0.34637946117436513  0.2937651053071022  1.0000
  F   F1        1.0  0.14265166549012065  0.2843928998336196  0.6028892082395032  1.0000
  F   F2        1.0  0.0006489359657280147  0.021877948282053694  0.33503932543681003  1.0000
  F   F3        1.0  0.38350573150091805  0.0838185390457511  0.7106106098653981  1.0000
  F   F4        1.0  0.6334433433512459  0.034142761665862054  0.31665893172612414  1.0000
  F   F5        1.0  0.017665972176473588  0.7624158968392294  0.47136722883442417  1.0000
  F   F6        1.0  0.5666217403486371  0.8546359845786355  0.3814479834472877  1.0000
  F   F7        1.0  0.5868046426621731  0.4880407654309238  0.5428277904538845  1.0000
  F   F8        1.0  0.5203650123439729  0.6214143944962416  0.06860457843868062  1.0000
  F   F9        1.0  0.6154585222830065  0.5828903375950176  0.9464630844886415  1.0000
  F   F10       1.0  0.7645552947651595  0.09260221822478343  0.7108075168507639  1.0000
  F   F11       1.0  0.1835454008942179  0.15010052279103547  0.7969424734110362  1.0000
  F   F12       1.0  0.8865994901716476  0.043653111439198256  0.22797576431185007  1.0000
data_image100
_chemical_formula_structural       Sb2H2O4F12
_chemical_formula_sum              "Sb2 H2 O4 F12"
_cell_length_a       5.174112999999999
_cell_length_b       7.3015345668964695
_cell_length_c       8.134955459169152
_cell_angle_alpha    90.9395314512041
_cell_angle_beta     97.22151606041648
_cell_angle_gamma    91.96796560956827

_space_group_name_H-M_alt    "P 1"
_space_group_IT_number       1

loop_
  _space_group_symop_operation_xyz
  'x, y, z'

loop_
  _atom_site_type_symbol
  _atom_site_label
  _atom_site_symmetry_multiplicity
  _atom_site_fract_x
  _atom_site_fract_y
  _atom_site_fract_z
  _atom_site_occupancy
  Sb  Sb1       1.0  0.6120614578248933  0.05555782056762837  0.8065671251097228  1.0000
  Sb  Sb2       1.0  0.5689642491488485  0.31170244768145494  0.48587923882587347  1.0000
  H   H1        1.0  0.38635831768624485  0.38531570899067447  0.051474776468239725  1.0000
  H   H2        1.0  0.26099968049675226  0.47408019084105035  0.4756045275134966  1.0000
  O   O1        1.0  0.9380780122883152  0.9574287055293098  0.5008743952494115  1.0000
  O   O2        1.0  0.11406905093463138  0.19570413313340396  0.6994069777429104  1.0000
  O   O3        1.0  0.16692588164005429  0.8329508510651067  0.26313569853664376  1.0000
  O   O4        1.0  0.32650993377319537  0.3797374191926792  0.3129753611283377  1.0000
  F   F1        1.0  0.1487275524996221  0.9479759766254574  0.7383514022221789  1.0000
  F   F2        1.0  0.1328568053431809  0.9169041246059351  0.4058055366622284  1.0000
  F   F3        1.0  0.8376763263840985  0.43114427921682363  0.2284764365031151  1.0000
  F   F4        1.0  0.8138301701983437  0.15900165485800244  0.5696838644216768  1.0000
  F   F5        1.0  0.6263239700929262  0.5248760387767106  0.14914750491152517  1.0000
  F   F6        1.0  0.19376605586148798  0.23359413031721488  0.7094884352836743  1.0000
  F   F7        1.0  0.23584081049193628  0.795815454561307  0.29917229870443407  1.0000
  F   F8        1.0  0.2959675621241331  0.03626800079655368  0.13140059728175402  1.0000
  F   F9        1.0  0.04480754234828055  0.15563262307841796  0.11998469808895607  1.0000
  F   F10       1.0  0.2593986330903135  0.22326968309062067  0.1668682386225555  1.0000
  F   F11       1.0  0.7527629499008981  0.9953892537450884  0.9422135500208242  1.0000
  F   F12       1.0  0.7804895246226806  0.9205611203797162  0.24595093028619885  1.0000
data_image101
_chemical_formula_structural       Sb2H2O4F12
_chemical_formula_sum              "Sb2 H2 O4 F12"
_cell_length_a       5.174112999999999
_cell_length_b       7.3015345668964695
_cell_length_c       8.134955459169152
_cell_angle_alpha    90.9395314512041
_cell_angle_beta     97.22151606041648
_cell_angle_gamma    91.96796560956827

_space_group_name_H-M_alt    "P 1"
_space_group_IT_number       1

loop_
  _space_group_symop_operation_xyz
  'x, y, z'

loop_
  _atom_site_type_symbol
  _atom_site_label
  _atom_site_symmetry_multiplicity
  _atom_site_fract_x
  _atom_site_fract_y
  _atom_site_fract_z
  _atom_site_occupancy
  Sb  Sb1       1.0  0.11551033187424764  0.44488909433130175  0.2644213531166315  1.0000
  Sb  Sb2       1.0  0.8839988615509355  0.009805956491618417  0.042291949095670134  1.0000
  H   H1        1.0  0.018222551909275353  0.7141043996380176  0.3181497106561437  1.0000
  H   H2        1.0  0.8099007445853204  0.8200884165198659  0.39070607407484204  1.0000
  O   O1        1.0  0.06888954626629129  0.16553349670721218  0.7689873673953116  1.0000
  O   O2        1.0  0.453215999819804  0.255573432543315  0.11952528485562652  1.0000
  O   O3        1.0  0.0291824716841802  0.31502491870196536  0.022084020398324355  1.0000
  O   O4        1.0  0.8048632365826052  0.05836582981282845  0.7915752480039373  1.0000
  F   F1        1.0  0.37363841803744435  0.125272445846349  0.8977858852595091  1.0000
  F   F2        1.0  0.299908596847672  0.5147428132768255  0.7212717572692782  1.0000
  F   F3        1.0  0.20994950874592178  0.9244599817466224  0.4394362648090464  1.0000
  F   F4        1.0  0.06671865066164173  0.36493826753576286  0.3643284935387783  1.0000
  F   F5        1.0  0.17675693985074759  0.5043691852479242  0.8391039614216425  1.0000
  F   F6        1.0  0.3166433365549892  0.42473505772068165  0.06542260947935574  1.0000
  F   F7        1.0  0.20906985143665224  0.8498825135939114  0.9920834263116376  1.0000
  F   F8        1.0  0.3325914121232927  0.7608680763805751  0.23685580008896068  1.0000
  F   F9        1.0  0.9475442828261293  0.19280673305911478  0.9352256114943884  1.0000
  F   F10       1.0  0.7452777683502063  0.03434461036522407  0.07370365034148563  1.0000
  F   F11       1.0  0.6671809101899271  0.07565985311521217  0.6004049086623127  1.0000
  F   F12       1.0  0.15524069673847407  0.6098995258798823  0.9002935234457254  1.0000
data_image102
_chemical_formula_structural       Sb2H2O4F12
_chemical_formula_sum              "Sb2 H2 O4 F12"
_cell_length_a       5.174112999999999
_cell_length_b       7.3015345668964695
_cell_length_c       8.134955459169152
_cell_angle_alpha    90.9395314512041
_cell_angle_beta     97.22151606041648
_cell_angle_gamma    91.96796560956827

_space_group_name_H-M_alt    "P 1"
_space_group_IT_number       1

loop_
  _space_group_symop_operation_xyz
  'x, y, z'

loop_
  _atom_site_type_symbol
  _atom_site_label
  _atom_site_symmetry_multiplicity
  _atom_site_fract_x
  _atom_site_fract_y
  _atom_site_fract_z
  _atom_site_occupancy
  Sb  Sb1       1.0  0.13790605412214063  0.9394689862092491  0.39765063309459947  1.0000
  Sb  Sb2       1.0  0.28146244212257443  0.8855610768659972  0.296419194797636  1.0000
  H   H1        1.0  0.86061840003822  0.7146934021729976  0.1384522122098133  1.0000
  H   H2        1.0  0.6433172128163278  0.5303303031760151  0.2394047089619562  1.0000
  O   O1        1.0  0.6188448282773606  0.17009980080183595  0.5182345375651494  1.0000
  O   O2        1.0  0.1890070213121362  0.6652944247471169  0.027690735063515604  1.0000
  O   O3        1.0  0.27539451618213207  0.5279967319220304  0.11931997421197593  1.0000
  O   O4        1.0  0.8222375674522482  0.9301884653395973  0.09308824769686908  1.0000
  F   F1        1.0  0.37808656552806497  0.8416347110178322  0.13251421751920134  1.0000
  F   F2        1.0  0.024568723572883755  0.12930455777677707  0.6113751700031571  1.0000
  F   F3        1.0  0.9532246819326247  0.5619258098340651  0.28220552179118386  1.0000
  F   F4        1.0  0.438839987909887  0.9873088074964471  0.6111455576610751  1.0000
  F   F5        1.0  0.24174692411907017  0.5162919944850728  0.6713699893298326  1.0000
  F   F6        1.0  0.8406101854052395  0.056437052164255874  0.9971101584596909  1.0000
  F   F7        1.0  0.9431333665852435  0.6887306433927733  0.2999255455392813  1.0000
  F   F8        1.0  0.0019070738926529884  0.1413364304607967  0.5863116104155779  1.0000
  F   F9        1.0  0.5066867919522338  0.7495953538455069  0.9713611500046682  1.0000
  F   F10       1.0  0.4576350310235284  0.05213303393975366  0.5560187659139046  1.0000
  F   F11       1.0  0.5133526735844498  0.3630166564544197  0.3844623852928635  1.0000
  F   F12       1.0  0.08760379041632405  0.20627855695784092  0.9948813047958538  1.0000
data_image103
_chemical_formula_structural       Sb2H2O4F12
_chemical_formula_sum              "Sb2 H2 O4 F12"
_cell_length_a       5.174112999999999
_cell_length_b       7.3015345668964695
_cell_length_c       8.134955459169152
_cell_angle_alpha    90.9395314512041
_cell_angle_beta     97.22151606041648
_cell_angle_gamma    91.96796560956827

_space_group_name_H-M_alt    "P 1"
_space_group_IT_number       1

loop_
  _space_group_symop_operation_xyz
  'x, y, z'

loop_
  _atom_site_type_symbol
  _atom_site_label
  _atom_site_symmetry_multiplicity
  _atom_site_fract_x
  _atom_site_fract_y
  _atom_site_fract_z
  _atom_site_occupancy
  Sb  Sb1       1.0  0.7218847918265965  0.16586303057556506  0.8320437512593344  1.0000
  Sb  Sb2       1.0  0.22927156357036438  0.6685208475828404  0.27795315616822336  1.0000
  H   H1        1.0  0.5479258736595511  0.709877505141776  0.27076893812045455  1.0000
  H   H2        1.0  0.3590186566580087  0.8010556004883256  0.06161787291057408  1.0000
  O   O1        1.0  0.9073268939682748  0.20142701140139252  0.8840763450134546  1.0000
  O   O2        1.0  0.27021126984618604  0.40703884814865887  0.05569327040575445  1.0000
  O   O3        1.0  0.7362154510337859  0.26490636955713853  0.37864446561434306  1.0000
  O   O4        1.0  0.06829501647735015  0.4091789898229763  0.3900714877527207  1.0000
  F   F1        1.0  0.6123446286655962  0.8640440898016095  0.7841190290637314  1.0000
  F   F2        1.0  0.22462859863298945  0.09515390955493785  0.07806109817465767  1.0000
  F   F3        1.0  0.35085364874612424  0.6178377248106699  0.3761870448215632  1.0000
  F   F4        1.0  0.37032184467534535  0.8319374373240862  0.9717596953269094  1.0000
  F   F5        1.0  0.10440201446181163  0.09520249257911928  0.6854361641599098  1.0000
  F   F6        1.0  0.9338194804731756  0.41448469878014293  0.4486407719523413  1.0000
  F   F7        1.0  0.2679365176009014  0.36681646550823643  0.9279514942179503  1.0000
  F   F8        1.0  0.86557133262977  0.1294638764957199  0.802337821922265  1.0000
  F   F9        1.0  0.9507412961975206  0.08126265792816412  0.0940173213602975  1.0000
  F   F10       1.0  0.993737128097564  0.5528181095723994  0.2769954131945269  1.0000
  F   F11       1.0  0.07218477050992078  0.43796547580859624  0.8438488354804576  1.0000
  F   F12       1.0  0.36422527951799566  0.3260264804121107  0.1367598861688748  1.0000
data_image104
_chemical_formula_structural       Sb2H2O4F12
_chemical_formula_sum              "Sb2 H2 O4 F12"
_cell_length_a       5.174112999999999
_cell_length_b       7.3015345668964695
_cell_length_c       8.134955459169152
_cell_angle_alpha    90.9395314512041
_cell_angle_beta     97.22151606041648
_cell_angle_gamma    91.96796560956827

_space_group_name_H-M_alt    "P 1"
_space_group_IT_number       1

loop_
  _space_group_symop_operation_xyz
  'x, y, z'

loop_
  _atom_site_type_symbol
  _atom_site_label
  _atom_site_symmetry_multiplicity
  _atom_site_fract_x
  _atom_site_fract_y
  _atom_site_fract_z
  _atom_site_occupancy
  Sb  Sb1       1.0  0.9208341439662036  0.008007483920664527  0.8703474022913724  1.0000
  Sb  Sb2       1.0  0.1059122959850356  0.930520926223835  0.09050215284514707  1.0000
  H   H1        1.0  0.9595356648787856  0.6115238678175956  0.2964500340167433  1.0000
  H   H2        1.0  0.4310743845999241  0.2533033434956451  0.22292896057479084  1.0000
  O   O1        1.0  0.06594388716621324  0.5003115354338661  0.08151548088062555  1.0000
  O   O2        1.0  0.5156518465373665  0.43616811966057867  0.4469131127698347  1.0000
  O   O3        1.0  0.22026790399104357  0.11414069781312719  0.13421915034996346  1.0000
  O   O4        1.0  0.1601776105526369  0.08777811634354293  0.892993483459577  1.0000
  F   F1        1.0  0.738553321454674  0.625120050739497  0.44014759629499167  1.0000
  F   F2        1.0  0.49346692307153717  0.8196836160495877  0.966026849579066  1.0000
  F   F3        1.0  0.7037881091182498  0.0837398216699512  0.02986485981818987  1.0000
  F   F4        1.0  0.22787324129603803  0.5689597364398651  0.761847588524688  1.0000
  F   F5        1.0  0.47078893473371863  0.251149120304035  0.3756497379799839  1.0000
  F   F6        1.0  0.42999501363374293  0.6173069008946186  0.035028663576667896  1.0000
  F   F7        1.0  0.7292639572406188  0.07632638719951501  0.996182371602572  1.0000
  F   F8        1.0  0.20953339571133256  0.4018126049631974  0.22454781603300944  1.0000
  F   F9        1.0  0.1382962795905769  0.21452908469655085  0.8030499371088808  1.0000
  F   F10       1.0  0.4558088495978154  0.6698261787205411  0.7644282420369564  1.0000
  F   F11       1.0  0.0633714914729353  0.2510416010336485  0.970844133378705  1.0000
  F   F12       1.0  0.8640615231051925  0.39372735074721277  0.7242650397820398  1.0000
data_image105
_chemical_formula_structural       Sb2H2O4F12
_chemical_formula_sum              "Sb2 H2 O4 F12"
_cell_length_a       5.174112999999999
_cell_length_b       7.3015345668964695
_cell_length_c       8.134955459169152
_cell_angle_alpha    90.9395314512041
_cell_angle_beta     97.22151606041648
_cell_angle_gamma    91.96796560956827

_space_group_name_H-M_alt    "P 1"
_space_group_IT_number       1

loop_
  _space_group_symop_operation_xyz
  'x, y, z'

loop_
  _atom_site_type_symbol
  _atom_site_label
  _atom_site_symmetry_multiplicity
  _atom_site_fract_x
  _atom_site_fract_y
  _atom_site_fract_z
  _atom_site_occupancy
  Sb  Sb1       1.0  0.9922389152634423  0.3169560878741322  0.46808992710430175  1.0000
  Sb  Sb2       1.0  0.6181586269594845  0.029842371150152758  0.1537695806036936  1.0000
  H   H1        1.0  0.10410794417839497  0.37920992128783837  0.552251169225201  1.0000
  H   H2        1.0  0.7465368185658008  0.8557325461733853  0.6315520580392331  1.0000
  O   O1        1.0  0.6469969270110596  0.08777780854143202  0.4404269630322233  1.0000
  O   O2        1.0  0.1556204958469607  0.4253689195611514  0.10769671644084156  1.0000
  O   O3        1.0  0.7515334575437009  0.2162938323454  0.6225895110983402  1.0000
  O   O4        1.0  0.35137133428361267  0.28796779533149675  0.688228310784325  1.0000
  F   F1        1.0  0.10171720432117581  0.9937134210485965  0.4200580536853522  1.0000
  F   F2        1.0  0.26213083407492377  0.12291653163265437  0.7031539613963105  1.0000
  F   F3        1.0  0.3773257111097337  0.4477779768167238  0.567170536472986  1.0000
  F   F4        1.0  0.5183725408569444  0.9862749294843525  0.4749410951626487  1.0000
  F   F5        1.0  0.27276766451541334  0.17676808839314617  0.24270755274483236  1.0000
  F   F6        1.0  0.3478673924691975  0.5858286510156177  0.610152203720645  1.0000
  F   F7        1.0  0.21844847034662962  0.651988575093128  0.7170169042410635  1.0000
  F   F8        1.0  0.6129456558264792  0.5080004307092167  0.4532493947772309  1.0000
  F   F9        1.0  0.8777002338320017  0.7683644245698815  0.21126273332629353  1.0000
  F   F10       1.0  0.05787663289811462  0.6422858544756309  0.3844498718099203  1.0000
  F   F11       1.0  0.0742661188596685  0.9662144634930883  0.4207170726513141  1.0000
  F   F12       1.0  0.6820980325719574  0.6757435130421072  0.15963736042613164  1.0000
data_image106
_chemical_formula_structural       Sb2H2O4F12
_chemical_formula_sum              "Sb2 H2 O4 F12"
_cell_length_a       5.174112999999999
_cell_length_b       7.3015345668964695
_cell_length_c       8.134955459169152
_cell_angle_alpha    90.9395314512041
_cell_angle_beta     97.22151606041648
_cell_angle_gamma    91.96796560956827

_space_group_name_H-M_alt    "P 1"
_space_group_IT_number       1

loop_
  _space_group_symop_operation_xyz
  'x, y, z'

loop_
  _atom_site_type_symbol
  _atom_site_label
  _atom_site_symmetry_multiplicity
  _atom_site_fract_x
  _atom_site_fract_y
  _atom_site_fract_z
  _atom_site_occupancy
  Sb  Sb1       1.0  0.08763044507941231  0.2601016510016052  0.48006280162371695  1.0000
  Sb  Sb2       1.0  0.19394760482828133  0.5312659852206707  0.6665145756560378  1.0000
  H   H1        1.0  0.23916008532978594  0.5559470935259014  0.918772475910373  1.0000
  H   H2        1.0  0.45033164718188345  0.48327470250660554  0.07844405085779727  1.0000
  O   O1        1.0  0.6265394924557768  0.8943713702028617  0.27447718067560345  1.0000
  O   O2        1.0  0.8850562727311626  0.7156584258191288  0.9532780974986963  1.0000
  O   O3        1.0  0.6259017384145409  0.6876296987757087  0.8456322519050445  1.0000
  O   O4        1.0  0.5362677327357233  0.05141500226454809  0.6969195862766355  1.0000
  F   F1        1.0  0.22773586446419358  0.7504928482230753  0.043386227218434215  1.0000
  F   F2        1.0  0.3495740230428055  0.7855924995674286  0.13451754735433497  1.0000
  F   F3        1.0  0.7748146940430161  0.9622567640471971  0.4035840471406118  1.0000
  F   F4        1.0  0.188726960652275  0.33930972445523366  0.5623747381614521  1.0000
  F   F5        1.0  0.7831391547806561  0.9042451942223124  0.8465723220397194  1.0000
  F   F6        1.0  0.42785017914138734  0.7770572682929924  0.4464616095574456  1.0000
  F   F7        1.0  0.7387560753850266  0.52326851118778  0.3225523520816296  1.0000
  F   F8        1.0  0.9159405389800668  0.5300580839830218  0.8377069974667393  1.0000
  F   F9        1.0  0.5581303391081747  0.695442407290102  0.029431774106342345  1.0000
  F   F10       1.0  0.6931621052790433  0.07235423852671374  0.3481858260347508  1.0000
  F   F11       1.0  0.7288067733461503  0.4817740411090199  0.6655349946086062  1.0000
  F   F12       1.0  0.3830223031982314  0.7610129181994125  0.7062014740658924  1.0000
data_image107
_chemical_formula_structural       Sb2H2O4F12
_chemical_formula_sum              "Sb2 H2 O4 F12"
_cell_length_a       5.174112999999999
_cell_length_b       7.3015345668964695
_cell_length_c       8.134955459169152
_cell_angle_alpha    90.9395314512041
_cell_angle_beta     97.22151606041648
_cell_angle_gamma    91.96796560956827

_space_group_name_H-M_alt    "P 1"
_space_group_IT_number       1

loop_
  _space_group_symop_operation_xyz
  'x, y, z'

loop_
  _atom_site_type_symbol
  _atom_site_label
  _atom_site_symmetry_multiplicity
  _atom_site_fract_x
  _atom_site_fract_y
  _atom_site_fract_z
  _atom_site_occupancy
  Sb  Sb1       1.0  0.3434696532494854  0.7486553066701163  0.6236922345124185  1.0000
  Sb  Sb2       1.0  0.4790677258861251  0.4937641462602187  0.8563864938041661  1.0000
  H   H1        1.0  0.6183760936837643  0.6979737055953592  0.14200281165540218  1.0000
  H   H2        1.0  0.8063382799737155  0.8846740050939843  0.8177128169336356  1.0000
  O   O1        1.0  0.4225478498265147  0.2863744904752821  0.5798866096884012  1.0000
  O   O2        1.0  0.49010986887151375  0.12087465525837615  0.7952502225525677  1.0000
  O   O3        1.0  0.8743280365597457  0.1421663536457345  0.9597659136925358  1.0000
  O   O4        1.0  0.8077262294245884  0.6598918274976313  0.5233515519066714  1.0000
  F   F1        1.0  0.9090657797642052  0.9094173258636147  0.42756504251156  1.0000
  F   F2        1.0  0.9202556547243148  0.39823677646927536  0.24060674058273435  1.0000
  F   F3        1.0  0.7272691024772939  0.5320026623776357  0.2212034571566619  1.0000
  F   F4        1.0  0.8967360817187  0.11683329817606136  0.11068965750746429  1.0000
  F   F5        1.0  0.4176160634960979  0.9819951039098669  0.24767752676052623  1.0000
  F   F6        1.0  0.10068420134484768  0.4267520580579003  0.9248244897971745  1.0000
  F   F7        1.0  0.5025698771351017  0.7614983227831544  0.5091461449937924  1.0000
  F   F8        1.0  0.03234054800122976  0.8938053438178031  0.24507395486580208  1.0000
  F   F9        1.0  0.05181201745290309  0.8325356104032835  0.4003976697276812  1.0000
  F   F10       1.0  0.4698564902646467  0.43929704192851204  0.35243877745233476  1.0000
  F   F11       1.0  0.402308988122968  0.6276186389441136  0.6138590553237009  1.0000
  F   F12       1.0  0.5165692445116292  0.8811159622855484  0.45744538272265345  1.0000
data_image108
_chemical_formula_structural       Sb2H2O4F12
_chemical_formula_sum              "Sb2 H2 O4 F12"
_cell_length_a       5.174112999999999
_cell_length_b       7.3015345668964695
_cell_length_c       8.134955459169152
_cell_angle_alpha    90.9395314512041
_cell_angle_beta     97.22151606041648
_cell_angle_gamma    91.96796560956827

_space_group_name_H-M_alt    "P 1"
_space_group_IT_number       1

loop_
  _space_group_symop_operation_xyz
  'x, y, z'

loop_
  _atom_site_type_symbol
  _atom_site_label
  _atom_site_symmetry_multiplicity
  _atom_site_fract_x
  _atom_site_fract_y
  _atom_site_fract_z
  _atom_site_occupancy
  Sb  Sb1       1.0  0.5047750725643709  0.2824398328230018  0.46354608464753255  1.0000
  Sb  Sb2       1.0  0.3661943383704056  0.40850818270700984  0.04160808458982501  1.0000
  H   H1        1.0  0.772437643725425  0.6358651664922945  0.1324706559535116  1.0000
  H   H2        1.0  0.0285958219319582  0.6074585451424355  0.9271677490323782  1.0000
  O   O1        1.0  0.45756248277029954  0.517560371896252  0.5807022905210033  1.0000
  O   O2        1.0  0.23537671961821616  0.09661388612585142  0.6668268081266433  1.0000
  O   O3        1.0  0.8404937306186184  0.8576602484099567  0.11892811313737184  1.0000
  O   O4        1.0  0.8165841089503374  0.7184372908668593  0.21218241925816983  1.0000
  F   F1        1.0  0.5995993390679359  0.33500640792772174  0.03400442888960242  1.0000
  F   F2        1.0  0.5013895870069973  0.15710566233610734  0.6501850865024608  1.0000
  F   F3        1.0  0.6104179243156977  0.316075706785341  0.22283642178808805  1.0000
  F   F4        1.0  0.5366050391457975  0.0634873733506538  0.6565824463614263  1.0000
  F   F5        1.0  0.03492978872964159  0.5159238919150084  0.3244907713524299  1.0000
  F   F6        1.0  0.9193434382323176  0.12658979373372858  0.20264142617452308  1.0000
  F   F7        1.0  0.24177502421662211  0.9503607788901718  0.33619701431780413  1.0000
  F   F8        1.0  0.10244285129010677  0.7859318375994917  0.9627291222568601  1.0000
  F   F9        1.0  0.6655557253980078  0.4165024256290053  0.7689500237902394  1.0000
  F   F10       1.0  0.522734789759852  0.2328556631473475  0.9712658856005874  1.0000
  F   F11       1.0  0.06661982314835768  0.3690885122923646  0.962301073333947  1.0000
  F   F12       1.0  0.8160471534465614  0.632250435766764  0.20246971771121025  1.0000
data_image109
_chemical_formula_structural       Sb2H2O4F12
_chemical_formula_sum              "Sb2 H2 O4 F12"
_cell_length_a       5.174112999999999
_cell_length_b       7.3015345668964695
_cell_length_c       8.134955459169152
_cell_angle_alpha    90.9395314512041
_cell_angle_beta     97.22151606041648
_cell_angle_gamma    91.96796560956827

_space_group_name_H-M_alt    "P 1"
_space_group_IT_number       1

loop_
  _space_group_symop_operation_xyz
  'x, y, z'

loop_
  _atom_site_type_symbol
  _atom_site_label
  _atom_site_symmetry_multiplicity
  _atom_site_fract_x
  _atom_site_fract_y
  _atom_site_fract_z
  _atom_site_occupancy
  Sb  Sb1       1.0  0.7998915153730195  0.17076575783721637  0.5775001004803926  1.0000
  Sb  Sb2       1.0  0.5348716704393155  0.2695464142016135  0.8117542508116458  1.0000
  H   H1        1.0  0.3185561530990526  0.8981981578981504  0.5826189564540982  1.0000
  H   H2        1.0  0.5512565821409225  0.3893092689104378  0.46339356241514906  1.0000
  O   O1        1.0  0.9833783370268065  0.7595873206155375  0.7686698620673269  1.0000
  O   O2        1.0  0.7343365731649101  0.6479779073270038  0.6818129995954223  1.0000
  O   O3        1.0  0.334423296386376  0.39280292543116957  0.32439464709023014  1.0000
  O   O4        1.0  0.11323050811188295  0.9200874783564359  0.9818439594237134  1.0000
  F   F1        1.0  0.7631596950814128  0.5497401186730713  0.04161837219726294  1.0000
  F   F2        1.0  0.832101803884143  0.23222703285864554  0.6507487512426451  1.0000
  F   F3        1.0  0.6598719435969542  0.6798533541877987  0.39672343352867756  1.0000
  F   F4        1.0  0.3606602619693149  0.016937789012445137  0.6879405101644807  1.0000
  F   F5        1.0  0.4980500176316127  0.7025937151920516  0.9557544760718883  1.0000
  F   F6        1.0  0.1472735032439232  0.28450803235318745  0.3417368527443614  1.0000
  F   F7        1.0  0.6565508467319887  0.33131652350130025  0.2656270341867639  1.0000
  F   F8        1.0  0.6798102953471243  0.4353468679910293  0.983500701317098  1.0000
  F   F9        1.0  0.460860965133179  0.41500668282969855  0.7400193841021974  1.0000
  F   F10       1.0  0.7460881415754557  0.4775739854449057  0.662074708729051  1.0000
  F   F11       1.0  0.36545305028812436  0.8379327216534875  0.0037483477717614733  1.0000
  F   F12       1.0  0.3198072401519312  0.27593833243008703  0.8657245047506876  1.0000
data_image110
_chemical_formula_structural       Sb2H2O4F12
_chemical_formula_sum              "Sb2 H2 O4 F12"
_cell_length_a       5.174112999999999
_cell_length_b       7.3015345668964695
_cell_length_c       8.134955459169152
_cell_angle_alpha    90.9395314512041
_cell_angle_beta     97.22151606041648
_cell_angle_gamma    91.96796560956827

_space_group_name_H-M_alt    "P 1"
_space_group_IT_number       1

loop_
  _space_group_symop_operation_xyz
  'x, y, z'

loop_
  _atom_site_type_symbol
  _atom_site_label
  _atom_site_symmetry_multiplicity
  _atom_site_fract_x
  _atom_site_fract_y
  _atom_site_fract_z
  _atom_site_occupancy
  Sb  Sb1       1.0  0.6182003575668205  0.48266297816007864  0.7343655840522842  1.0000
  Sb  Sb2       1.0  0.8988562194135739  0.7294182947953232  0.12867981308954768  1.0000
  H   H1        1.0  0.7600764191010967  0.37456987344194204  0.12106604990549386  1.0000
  H   H2        1.0  0.4510758409742266  0.9360567186377011  0.2862719642580487  1.0000
  O   O1        1.0  0.8219361862866208  0.5920005385996774  0.7904581407783553  1.0000
  O   O2        1.0  0.5892206830321811  0.9524983789306134  0.5037539852201007  1.0000
  O   O3        1.0  0.1904337388696149  0.1927720759413205  0.13503164376015775  1.0000
  O   O4        1.0  0.8171834630484227  0.2486782333580777  0.8279291374492459  1.0000
  F   F1        1.0  0.23540334356948733  0.12015187740325928  0.2857971676858142  1.0000
  F   F2        1.0  0.9566031619033311  0.09258813771884888  0.5700447662966326  1.0000
  F   F3        1.0  0.19922207746640197  0.6779790147174936  0.10161670595698524  1.0000
  F   F4        1.0  0.2103849323175382  0.6504320640233345  0.7130781429586932  1.0000
  F   F5        1.0  0.8180948191438802  0.03536115225870162  0.31597902899375185  1.0000
  F   F6        1.0  0.7031784416176379  0.3751631699051359  0.5919226337027794  1.0000
  F   F7        1.0  0.06069195474265143  0.8708416982553899  0.6901734050261439  1.0000
  F   F8        1.0  0.6127736587077379  0.49106767265766393  0.6906757444376126  1.0000
  F   F9        1.0  0.4299633577466011  0.8472012942511356  0.11119310463254806  1.0000
  F   F10       1.0  0.8577150903292932  0.8647917841080925  0.9587981707591098  1.0000
  F   F11       1.0  0.16935293780625216  0.5394764020456932  0.18753401558933547  1.0000
  F   F12       1.0  0.8603529311812963  0.5220156462164596  0.7103688878705725  1.0000
data_image111
_chemical_formula_structural       Sb2H2O4F12
_chemical_formula_sum              "Sb2 H2 O4 F12"
_cell_length_a       5.174112999999999
_cell_length_b       7.3015345668964695
_cell_length_c       8.134955459169152
_cell_angle_alpha    90.9395314512041
_cell_angle_beta     97.22151606041648
_cell_angle_gamma    91.96796560956827

_space_group_name_H-M_alt    "P 1"
_space_group_IT_number       1

loop_
  _space_group_symop_operation_xyz
  'x, y, z'

loop_
  _atom_site_type_symbol
  _atom_site_label
  _atom_site_symmetry_multiplicity
  _atom_site_fract_x
  _atom_site_fract_y
  _atom_site_fract_z
  _atom_site_occupancy
  Sb  Sb1       1.0  0.012065493559930474  0.6929405245609814  0.7915714699338423  1.0000
  Sb  Sb2       1.0  0.8542406646083691  0.9658392216078937  0.8555816314037656  1.0000
  H   H1        1.0  0.009476019535213709  0.680924553249497  0.297015146818012  1.0000
  H   H2        1.0  0.8513266099616885  0.9725288585832459  0.3988012787885964  1.0000
  O   O1        1.0  0.6265345748106483  0.7336545558646321  0.5130454620812088  1.0000
  O   O2        1.0  0.0499617830500938  0.16081760090310127  0.8395076771266758  1.0000
  O   O3        1.0  0.5623106175335124  0.6726678205886856  0.9531567257072311  1.0000
  O   O4        1.0  0.003027251601452008  0.5665269718738273  0.6085845135967247  1.0000
  F   F1        1.0  0.752837744075805  0.6151870312169194  0.6356865557609126  1.0000
  F   F2        1.0  0.7076915527577512  0.5178066068619955  0.30482962165842764  1.0000
  F   F3        1.0  0.25934552346370765  0.4758371180469112  0.7817262563112308  1.0000
  F   F4        1.0  0.7106523643888067  0.4629021919099614  0.12130394275300205  1.0000
  F   F5        1.0  0.4229137635556981  0.16484574144124053  0.8627858327854483  1.0000
  F   F6        1.0  0.21346697746776044  0.34665995569957886  0.663932564038987  1.0000
  F   F7        1.0  0.3503791954135522  0.7609996655664872  0.3593396676660632  1.0000
  F   F8        1.0  0.5940410820767283  0.06990640118601732  0.02532994467765093  1.0000
  F   F9        1.0  0.4930750882194843  0.06802932000573492  0.5395282193785533  1.0000
  F   F10       1.0  0.5431915944791399  0.5851215588700143  0.5740130916237831  1.0000
  F   F11       1.0  0.6530762214606511  0.9341600800980814  0.7147064006639994  1.0000
  F   F12       1.0  0.9656893180217594  0.3393088507000357  0.7346572219394147  1.0000
data_image112
_chemical_formula_structural       Sb2H2O4F12
_chemical_formula_sum              "Sb2 H2 O4 F12"
_cell_length_a       5.174112999999999
_cell_length_b       7.3015345668964695
_cell_length_c       8.134955459169152
_cell_angle_alpha    90.9395314512041
_cell_angle_beta     97.22151606041648
_cell_angle_gamma    91.96796560956827

_space_group_name_H-M_alt    "P 1"
_space_group_IT_number       1

loop_
  _space_group_symop_operation_xyz
  'x, y, z'

loop_
  _atom_site_type_symbol
  _atom_site_label
  _atom_site_symmetry_multiplicity
  _atom_site_fract_x
  _atom_site_fract_y
  _atom_site_fract_z
  _atom_site_occupancy
  Sb  Sb1       1.0  0.11372705691610463  0.5186906349554192  0.46852621813013684  1.0000
  Sb  Sb2       1.0  0.7552823533351329  0.997164870321285  0.4577839907578891  1.0000
  H   H1        1.0  0.3792478200048208  0.34620971634285524  0.5371907444205135  1.0000
  H   H2        1.0  0.2338374829851091  0.5361401675436355  0.5491386947105639  1.0000
  O   O1        1.0  0.011659487092401832  0.6353173817042261  0.19030927191488445  1.0000
  O   O2        1.0  0.6113449643016793  0.8172718079295009  0.572061194863636  1.0000
  O   O3        1.0  0.8620466333813965  0.3236312121152878  0.8153069587424397  1.0000
  O   O4        1.0  0.08192745634005405  0.9250944564701058  0.005152679514139891  1.0000
  F   F1        1.0  0.03466201853007078  0.8067415545228869  0.9346985941519961  1.0000
  F   F2        1.0  0.14631734701106325  0.6328458680363838  0.1399989054480102  1.0000
  F   F3        1.0  0.7616058696366963  0.3189239026451105  0.07015165009943303  1.0000
  F   F4        1.0  0.9034826708375476  0.3855909826233983  0.6985188956023194  1.0000
  F   F5        1.0  0.9391249638283625  0.767533584847115  0.45891878592919966  1.0000
  F   F6        1.0  0.51552854757756  0.36951255166786723  0.6899551715632697  1.0000
  F   F7        1.0  0.16334581933915615  0.0681003045901889  0.07070566236507148  1.0000
  F   F8        1.0  0.36547724809497595  0.4441431628220016  0.21042312326608226  1.0000
  F   F9        1.0  0.3462395691894926  0.8155053349328227  0.7449203413561918  1.0000
  F   F10       1.0  0.7851526348968036  0.7520372947037686  0.3562571186630521  1.0000
  F   F11       1.0  0.32652477534429636  0.9955664571898524  0.36085700531839393  1.0000
  F   F12       1.0  0.6820313925636583  0.6877984986640513  0.8795091723441146  1.0000
data_image113
_chemical_formula_structural       Sb2H2O4F12
_chemical_formula_sum              "Sb2 H2 O4 F12"
_cell_length_a       5.174112999999999
_cell_length_b       7.3015345668964695
_cell_length_c       8.134955459169152
_cell_angle_alpha    90.9395314512041
_cell_angle_beta     97.22151606041648
_cell_angle_gamma    91.96796560956827

_space_group_name_H-M_alt    "P 1"
_space_group_IT_number       1

loop_
  _space_group_symop_operation_xyz
  'x, y, z'

loop_
  _atom_site_type_symbol
  _atom_site_label
  _atom_site_symmetry_multiplicity
  _atom_site_fract_x
  _atom_site_fract_y
  _atom_site_fract_z
  _atom_site_occupancy
  Sb  Sb1       1.0  0.6813033496437129  0.45728878713271115  0.5143069429177558  1.0000
  Sb  Sb2       1.0  0.9190318353157636  0.9187260587641504  0.5412738566228654  1.0000
  H   H1        1.0  0.01107785408385098  0.7570039901183918  0.7233722042292356  1.0000
  H   H2        1.0  0.7629610754083842  0.2855720243205724  0.4176269184681587  1.0000
  O   O1        1.0  0.7991170709719881  0.18255096720531583  0.6724151624366641  1.0000
  O   O2        1.0  0.5787563198246062  0.9800132367527112  0.6412961874739267  1.0000
  O   O3        1.0  0.022873097099363804  0.33570693113142624  0.9543722516391426  1.0000
  O   O4        1.0  0.637967634742381  0.6633246600395069  0.921995596610941  1.0000
  F   F1        1.0  0.9822471663355827  0.652004667557776  0.27456528157927096  1.0000
  F   F2        1.0  0.9597971985931508  0.5874242116697133  0.10168702717055567  1.0000
  F   F3        1.0  0.590900681221683  0.04596214813136612  0.7724139236524934  1.0000
  F   F4        1.0  0.19681837427197024  0.7588745242974255  0.9355127740418538  1.0000
  F   F5        1.0  0.2960192457539961  0.9939553790318314  0.6242743552302272  1.0000
  F   F6        1.0  0.9253638638183475  0.7725272585739731  0.038253494516411024  1.0000
  F   F7        1.0  0.5002943865838461  0.9513267937581986  0.1620805584716436  1.0000
  F   F8        1.0  0.12358218524605036  0.4339318189158803  0.17496356624178588  1.0000
  F   F9        1.0  0.3696355758002028  0.5875079801044194  0.8667194472218398  1.0000
  F   F10       1.0  0.9990322809899226  0.8623056558062672  0.9870721293846145  1.0000
  F   F11       1.0  0.8536512526334263  0.14828208228573203  0.3803896857352811  1.0000
  F   F12       1.0  0.47502759577764664  0.7061576426494867  0.272652426850982  1.0000
data_image114
_chemical_formula_structural       Sb2H2O4F12
_chemical_formula_sum              "Sb2 H2 O4 F12"
_cell_length_a       5.174112999999999
_cell_length_b       7.3015345668964695
_cell_length_c       8.134955459169152
_cell_angle_alpha    90.9395314512041
_cell_angle_beta     97.22151606041648
_cell_angle_gamma    91.96796560956827

_space_group_name_H-M_alt    "P 1"
_space_group_IT_number       1

loop_
  _space_group_symop_operation_xyz
  'x, y, z'

loop_
  _atom_site_type_symbol
  _atom_site_label
  _atom_site_symmetry_multiplicity
  _atom_site_fract_x
  _atom_site_fract_y
  _atom_site_fract_z
  _atom_site_occupancy
  Sb  Sb1       1.0  0.9284613104537129  0.1009075130277779  0.34991131015704013  1.0000
  Sb  Sb2       1.0  0.958710927863649  0.26470241555944085  0.9638755493360804  1.0000
  H   H1        1.0  0.1726960060186684  0.11334805574733764  0.1801037056138739  1.0000
  H   H2        1.0  0.35154188447631896  0.6128673067505588  0.8224391076946631  1.0000
  O   O1        1.0  0.14128838993201498  0.4634363886434585  0.7364407925633714  1.0000
  O   O2        1.0  0.18876468803500757  0.7947873599478044  0.44138242583721876  1.0000
  O   O3        1.0  0.9128363564377651  0.2631191879045218  0.9459985183784738  1.0000
  O   O4        1.0  0.8375316182791721  0.819883439631667  0.5439285130705684  1.0000
  F   F1        1.0  0.6806227522902191  0.6692409794777632  0.36984481115359813  1.0000
  F   F2        1.0  0.5712037867051549  0.6522045422170777  0.45780926788575016  1.0000
  F   F3        1.0  0.5885859089357837  0.7034219992056023  0.8760759958968265  1.0000
  F   F4        1.0  0.6745668278017547  0.36675628618104383  0.5896736487047747  1.0000
  F   F5        1.0  0.2941862107254565  0.9909358832519501  0.5667287178284823  1.0000
  F   F6        1.0  0.4941670671105385  0.3003259286051616  0.5300980742085812  1.0000
  F   F7        1.0  0.9307657586177811  0.5891345349664334  0.540148864252842  1.0000
  F   F8        1.0  0.9981689294800162  0.28542007255600765  0.3239430018584244  1.0000
  F   F9        1.0  0.652177483018022  0.9035397126572207  0.08537461674131919  1.0000
  F   F10       1.0  0.8375658337026834  0.42654754610703094  0.812139557529008  1.0000
  F   F11       1.0  0.021404391416581348  0.1905099838040769  0.13598917623312445  1.0000
  F   F12       1.0  0.4206305351763149  0.3245917789172381  0.8969305096543394  1.0000
data_image115
_chemical_formula_structural       Sb2H2O4F12
_chemical_formula_sum              "Sb2 H2 O4 F12"
_cell_length_a       5.174112999999999
_cell_length_b       7.3015345668964695
_cell_length_c       8.134955459169152
_cell_angle_alpha    90.9395314512041
_cell_angle_beta     97.22151606041648
_cell_angle_gamma    91.96796560956827

_space_group_name_H-M_alt    "P 1"
_space_group_IT_number       1

loop_
  _space_group_symop_operation_xyz
  'x, y, z'

loop_
  _atom_site_type_symbol
  _atom_site_label
  _atom_site_symmetry_multiplicity
  _atom_site_fract_x
  _atom_site_fract_y
  _atom_site_fract_z
  _atom_site_occupancy
  Sb  Sb1       1.0  0.2476781306322664  0.2515192652208498  0.29271258114022203  1.0000
  Sb  Sb2       1.0  0.7861574938760896  0.7460331151669379  0.2823532268812414  1.0000
  H   H1        1.0  0.12493482348509133  0.3111847396939993  0.6240546345943585  1.0000
  H   H2        1.0  0.3724577510729432  0.7424636220312095  0.7867058460833505  1.0000
  O   O1        1.0  0.37112739095755387  0.01587168569676578  0.8833685066783801  1.0000
  O   O2        1.0  0.39401148568140343  0.9768106146948412  0.8063051064382307  1.0000
  O   O3        1.0  0.5396868851967156  0.3369424095726572  0.5705577242479194  1.0000
  O   O4        1.0  0.3267266247421503  0.2278103452990763  0.8872697602491826  1.0000
  F   F1        1.0  0.3986641080118716  0.05084166629239917  0.4948096100706607  1.0000
  F   F2        1.0  0.9306153653888032  0.36740083957556635  0.9041027057974134  1.0000
  F   F3        1.0  0.3953961079241708  0.721535021904856  0.2922456783708185  1.0000
  F   F4        1.0  0.14603038274799474  0.4724767252046149  0.7732250013505109  1.0000
  F   F5        1.0  0.4184492366039194  0.19725767010822892  0.1593186261052324  1.0000
  F   F6        1.0  0.4928576103411615  0.46837386638799217  0.33538461209536763  1.0000
  F   F7        1.0  0.13839950418332592  0.8168853717506863  0.35745386654889444  1.0000
  F   F8        1.0  0.890292321331799  0.0325970266967488  0.5622379381093197  1.0000
  F   F9        1.0  0.3006738594849594  0.7330350119736977  0.5660328361555003  1.0000
  F   F10       1.0  0.06616887147538364  0.330114485543163  0.2765529652533587  1.0000
  F   F11       1.0  0.7913091547670774  0.5639126921014395  0.46290450805827277  1.0000
  F   F12       1.0  0.5889369585638633  0.4205922265537083  0.433630887826439  1.0000
data_image116
_chemical_formula_structural       Sb2H2O4F12
_chemical_formula_sum              "Sb2 H2 O4 F12"
_cell_length_a       5.174112999999999
_cell_length_b       7.3015345668964695
_cell_length_c       8.134955459169152
_cell_angle_alpha    90.9395314512041
_cell_angle_beta     97.22151606041648
_cell_angle_gamma    91.96796560956827

_space_group_name_H-M_alt    "P 1"
_space_group_IT_number       1

loop_
  _space_group_symop_operation_xyz
  'x, y, z'

loop_
  _atom_site_type_symbol
  _atom_site_label
  _atom_site_symmetry_multiplicity
  _atom_site_fract_x
  _atom_site_fract_y
  _atom_site_fract_z
  _atom_site_occupancy
  Sb  Sb1       1.0  0.4645741574349813  0.1734893245738931  0.4760535345703829  1.0000
  Sb  Sb2       1.0  0.9935963720927248  0.8472839741152711  0.8022807384550106  1.0000
  H   H1        1.0  0.8688732068985701  0.4654918998130597  0.6915846245829016  1.0000
  H   H2        1.0  0.7043761878740042  0.3531470531379455  0.9853060956229456  1.0000
  O   O1        1.0  0.9052342724608025  0.774590146378614  0.15747639851178974  1.0000
  O   O2        1.0  0.7966718938550912  0.30818559345789254  0.9789364545140415  1.0000
  O   O3        1.0  0.9928874267498031  0.7494514882564545  0.6100617426272947  1.0000
  O   O4        1.0  0.27060019969940186  0.6515172004583292  0.8067639281507581  1.0000
  F   F1        1.0  0.913626431953162  0.868856642395258  0.47425154503434896  1.0000
  F   F2        1.0  0.8432796319248155  0.03862860452500172  0.4845974592899438  1.0000
  F   F3        1.0  0.7441920726378157  0.1968802775165841  0.5962942514379392  1.0000
  F   F4        1.0  0.5284697657334618  0.7145320328418165  0.7272639138973318  1.0000
  F   F5        1.0  0.6772339578601532  0.17797139892354608  0.24758475046797912  1.0000
  F   F6        1.0  0.26437231595627964  0.6708693376931478  0.9816423485754058  1.0000
  F   F7        1.0  0.31137146783294156  0.4147266483050771  0.6720812909479719  1.0000
  F   F8        1.0  0.9062428721226752  0.1249308408878278  0.859519783873111  1.0000
  F   F9        1.0  0.18618161272024736  0.7469419781773468  0.7515934218099574  1.0000
  F   F10       1.0  0.8657905227737501  0.12392646395164775  0.5286880861967802  1.0000
  F   F11       1.0  0.3200608378610923  0.07302605512086302  0.3790634062679601  1.0000
  F   F12       1.0  0.4085799331078306  0.006215781555511057  0.199288459145464  1.0000
data_image117
_chemical_formula_structural       Sb2H2O4F12
_chemical_formula_sum              "Sb2 H2 O4 F12"
_cell_length_a       5.174112999999999
_cell_length_b       7.3015345668964695
_cell_length_c       8.134955459169152
_cell_angle_alpha    90.9395314512041
_cell_angle_beta     97.22151606041648
_cell_angle_gamma    91.96796560956827

_space_group_name_H-M_alt    "P 1"
_space_group_IT_number       1

loop_
  _space_group_symop_operation_xyz
  'x, y, z'

loop_
  _atom_site_type_symbol
  _atom_site_label
  _atom_site_symmetry_multiplicity
  _atom_site_fract_x
  _atom_site_fract_y
  _atom_site_fract_z
  _atom_site_occupancy
  Sb  Sb1       1.0  0.6744976079789922  0.29243079958541784  0.15158114151563495  1.0000
  Sb  Sb2       1.0  0.902566183511226  0.7048273039981723  0.25872462561528664  1.0000
  H   H1        1.0  0.4808813607087359  0.77934544213349  0.8486712464364246  1.0000
  H   H2        1.0  0.06789986276999116  0.639578808008082  0.889058944187127  1.0000
  O   O1        1.0  0.11806756631995086  0.5549766150070354  0.6222834015497938  1.0000
  O   O2        1.0  0.928446049510967  0.9606569996103644  0.26869553088909015  1.0000
  O   O3        1.0  0.7383216127054766  0.9587951963767409  0.9732507733715465  1.0000
  O   O4        1.0  0.5603466841275804  0.5615862559061497  0.8960768834222108  1.0000
  F   F1        1.0  0.4469865169376135  0.24013457517139614  0.698249617475085  1.0000
  F   F2        1.0  0.60341779893497  0.3703674305288587  0.4834072531957645  1.0000
  F   F3        1.0  0.44876030989507854  0.6763105445879773  0.10600226568931248  1.0000
  F   F4        1.0  0.30956626049010083  0.8860969412198756  0.803868240036536  1.0000
  F   F5        1.0  0.2549717984511517  0.7687245177221484  0.02435667758436466  1.0000
  F   F6        1.0  0.8232572192791849  0.050418236876794253  0.4497045739553869  1.0000
  F   F7        1.0  0.7436088399263099  0.9427863321470795  0.006732481544531765  1.0000
  F   F8        1.0  0.2303590439260006  0.32277749628337915  0.5296170397195965  1.0000
  F   F9        1.0  0.373199774621753  0.2469424023947795  0.9184710401459597  1.0000
  F   F10       1.0  0.4651260912651196  0.4602740344707854  0.6159108745341655  1.0000
  F   F11       1.0  0.48875489042984555  0.46877882585977204  0.895461333620915  1.0000
  F   F12       1.0  0.4309892167293583  0.9689324840437621  0.12260947347385809  1.0000
data_image118
_chemical_formula_structural       Sb2H2O4F12
_chemical_formula_sum              "Sb2 H2 O4 F12"
_cell_length_a       5.174112999999999
_cell_length_b       7.3015345668964695
_cell_length_c       8.134955459169152
_cell_angle_alpha    90.9395314512041
_cell_angle_beta     97.22151606041648
_cell_angle_gamma    91.96796560956827

_space_group_name_H-M_alt    "P 1"
_space_group_IT_number       1

loop_
  _space_group_symop_operation_xyz
  'x, y, z'

loop_
  _atom_site_type_symbol
  _atom_site_label
  _atom_site_symmetry_multiplicity
  _atom_site_fract_x
  _atom_site_fract_y
  _atom_site_fract_z
  _atom_site_occupancy
  Sb  Sb1       1.0  0.42674631415866315  0.8630072819214547  0.545087354752468  1.0000
  Sb  Sb2       1.0  0.17551540137719712  0.23763031381531619  0.04223983740666881  1.0000
  H   H1        1.0  0.9070121516706422  0.7403196580708027  0.5803061343031004  1.0000
  H   H2        1.0  0.8074636359233409  0.572167778689618  0.2294013774371706  1.0000
  O   O1        1.0  0.027171254652785137  0.953248503850773  0.21578270033933222  1.0000
  O   O2        1.0  0.4542537882225588  0.4351089723641053  0.1649840700556524  1.0000
  O   O3        1.0  0.43814723170362413  0.5546119679929689  0.5581050286418758  1.0000
  O   O4        1.0  0.7753224319894798  0.8979197114240378  0.8129286151379347  1.0000
  F   F1        1.0  0.45607752772048116  0.9401696727145463  0.4242761997738853  1.0000
  F   F2        1.0  0.5780598931596614  0.6862987137283199  0.9128653470252175  1.0000
  F   F3        1.0  0.5642416182481611  0.4004750609401526  0.1780294367490569  1.0000
  F   F4        1.0  0.5962339170218911  0.2830660919134971  0.7468581126304343  1.0000
  F   F5        1.0  0.1251431560376659  0.2239402414415963  0.8813913406429492  1.0000
  F   F6        1.0  0.00870887329801917  0.5437563236991991  0.1596844666346442  1.0000
  F   F7        1.0  0.8315760655095801  0.5175849789084168  0.6749673870017432  1.0000
  F   F8        1.0  0.20763639267534018  0.9769124877966533  0.7106021810905077  1.0000
  F   F9        1.0  0.794926729373401  0.17688799816096434  0.735307312963414  1.0000
  F   F10       1.0  0.6033896969165653  0.5147271203386481  0.7469941354647744  1.0000
  F   F11       1.0  0.333241348125739  0.3681909238512162  0.45710101947406656  1.0000
  F   F12       1.0  0.49038935657881666  0.9719896145397797  0.4830968054011464  1.0000
data_image119
_chemical_formula_structural       Sb2H2O4F12
_chemical_formula_sum              "Sb2 H2 O4 F12"
_cell_length_a       5.174112999999999
_cell_length_b       7.3015345668964695
_cell_length_c       8.134955459169152
_cell_angle_alpha    90.9395314512041
_cell_angle_beta     97.22151606041648
_cell_angle_gamma    91.96796560956827

_space_group_name_H-M_alt    "P 1"
_space_group_IT_number       1

loop_
  _space_group_symop_operation_xyz
  'x, y, z'

loop_
  _atom_site_type_symbol
  _atom_site_label
  _atom_site_symmetry_multiplicity
  _atom_site_fract_x
  _atom_site_fract_y
  _atom_site_fract_z
  _atom_site_occupancy
  Sb  Sb1       1.0  0.06679712785989977  0.43294887972297147  0.05260072473902255  1.0000
  Sb  Sb2       1.0  0.3882676932880713  0.8429321970616002  0.4266803495993372  1.0000
  H   H1        1.0  0.7816828417126089  0.8352833341923542  0.2630983361741528  1.0000
  H   H2        1.0  0.6784537846688181  0.5643009903724305  0.48116238485090435  1.0000
  O   O1        1.0  0.2290819099289365  0.10414887848310173  0.6240846269065514  1.0000
  O   O2        1.0  0.13198916940018535  0.7537183229578659  0.2784213264239952  1.0000
  O   O3        1.0  0.33079657272901386  0.9678559153107926  0.5129658558871597  1.0000
  O   O4        1.0  0.7005388861289248  0.310239490121603  0.36793596378993243  1.0000
  F   F1        1.0  0.3215493420138955  0.8842242320533842  0.7872583486605436  1.0000
  F   F2        1.0  0.8713074348634109  0.08090573264053091  0.40236479972372763  1.0000
  F   F3        1.0  0.6325427896063047  0.5087713546654413  0.7774822717474308  1.0000
  F   F4        1.0  0.4958976124471519  0.4319379521184601  0.29546205123187974  1.0000
  F   F5        1.0  0.08588117989711463  0.30963268846971914  0.6108409529697383  1.0000
  F   F6        1.0  0.7975315130315721  0.016779371228039963  0.16540231052204035  1.0000
  F   F7        1.0  0.5103538596304134  0.3784378598938929  0.44361356908484595  1.0000
  F   F8        1.0  0.6635347693227232  0.3387240934825968  0.6480368077172898  1.0000
  F   F9        1.0  0.6258379790524486  0.5468734278983902  0.38713976480357815  1.0000
  F   F10       1.0  0.5144788181059994  0.6109832395595731  0.9506723437807523  1.0000
  F   F11       1.0  0.1793458875035867  0.7270661673392169  0.8555756310306606  1.0000
  F   F12       1.0  0.3864223599448451  0.7860794513253495  0.6049345604842529  1.0000
data_image120
_chemical_formula_structural       Sb2H2O4F12
_chemical_formula_sum              "Sb2 H2 O4 F12"
_cell_length_a       5.174112999999999
_cell_length_b       7.3015345668964695
_cell_length_c       8.134955459169152
_cell_angle_alpha    90.9395314512041
_cell_angle_beta     97.22151606041648
_cell_angle_gamma    91.96796560956827

_space_group_name_H-M_alt    "P 1"
_space_group_IT_number       1

loop_
  _space_group_symop_operation_xyz
  'x, y, z'

loop_
  _atom_site_type_symbol
  _atom_site_label
  _atom_site_symmetry_multiplicity
  _atom_site_fract_x
  _atom_site_fract_y
  _atom_site_fract_z
  _atom_site_occupancy
  Sb  Sb1       1.0  0.9833378856128547  0.9219387895282125  0.3661541954934364  1.0000
  Sb  Sb2       1.0  0.8215471041876299  0.9841980690544005  0.5790580138418591  1.0000
  H   H1        1.0  0.4517870816634968  0.967814092815388  0.9144181065494195  1.0000
  H   H2        1.0  0.46787348156794906  0.03802665618059109  0.5569588546641171  1.0000
  O   O1        1.0  0.7101534755347529  0.7300934015074745  0.1556486685294658  1.0000
  O   O2        1.0  0.9688801361480728  0.7904825152945705  0.868736507545691  1.0000
  O   O3        1.0  0.2851038185181096  0.9087395963724703  0.28973722929367796  1.0000
  O   O4        1.0  0.9370814977737609  0.2967446356196888  0.04512157663702965  1.0000
  F   F1        1.0  0.43433937057852745  0.44497510651126504  0.17553738609421998  1.0000
  F   F2        1.0  0.37204599112737924  0.06344975749379955  0.28195278043858707  1.0000
  F   F3        1.0  0.6369591300242519  0.3725787504808977  0.21676733577623963  1.0000
  F   F4        1.0  0.6486936780565884  0.2877830254728906  0.3948746353853494  1.0000
  F   F5        1.0  0.9628625868936069  0.970399369543884  0.36136259053091635  1.0000
  F   F6        1.0  0.22679902613162994  0.8469217427627882  0.6287017903669039  1.0000
  F   F7        1.0  0.2947365007712506  0.2577604589969269  0.923539939109105  1.0000
  F   F8        1.0  0.7661320818588138  0.6239908031493542  0.3842807288165204  1.0000
  F   F9        1.0  0.5211526082712226  0.11519955460971687  0.036422503952053376  1.0000
  F   F10       1.0  0.7834987522801384  0.8100410568658845  0.2749823116173502  1.0000
  F   F11       1.0  0.7811790295381797  0.461278356378898  0.5441268094946281  1.0000
  F   F12       1.0  0.6186620048320037  0.3126962633104995  0.7276446730829775  1.0000
data_image121
_chemical_formula_structural       Sb2H2O4F12
_chemical_formula_sum              "Sb2 H2 O4 F12"
_cell_length_a       5.174112999999999
_cell_length_b       7.3015345668964695
_cell_length_c       8.134955459169152
_cell_angle_alpha    90.9395314512041
_cell_angle_beta     97.22151606041648
_cell_angle_gamma    91.96796560956827

_space_group_name_H-M_alt    "P 1"
_space_group_IT_number       1

loop_
  _space_group_symop_operation_xyz
  'x, y, z'

loop_
  _atom_site_type_symbol
  _atom_site_label
  _atom_site_symmetry_multiplicity
  _atom_site_fract_x
  _atom_site_fract_y
  _atom_site_fract_z
  _atom_site_occupancy
  Sb  Sb1       1.0  0.694734930206323  0.8315443726314697  0.007136409229133278  1.0000
  Sb  Sb2       1.0  0.06235262662812602  0.7053328753972892  0.9490734061109833  1.0000
  H   H1        1.0  0.7888372874585912  0.5961311787250452  0.6877819658257067  1.0000
  H   H2        1.0  0.38122122804634273  0.00482664733499405  0.23256041458807886  1.0000
  O   O1        1.0  0.5510874568280997  0.7863137606764212  0.2224654742749408  1.0000
  O   O2        1.0  0.5236818828270771  0.2243724005529657  0.7629129901179112  1.0000
  O   O3        1.0  0.1214732212247327  0.9459084469126537  0.3840793063136516  1.0000
  O   O4        1.0  0.26131031548720784  0.4981645284569822  0.6915726762963459  1.0000
  F   F1        1.0  0.6271798824891448  0.25635871454142034  0.5879763732664287  1.0000
  F   F2        1.0  0.8655922012403607  0.36171324204769917  0.8547842131520156  1.0000
  F   F3        1.0  0.37265917547520644  0.9005963828676613  0.8767547152383486  1.0000
  F   F4        1.0  0.4786261551780626  0.9129875191720203  0.5856711019878276  1.0000
  F   F5        1.0  0.12513121811207384  0.14538544893730432  0.4484678273074678  1.0000
  F   F6        1.0  0.32337333634495735  0.7235933666306664  0.5774011827743379  1.0000
  F   F7        1.0  0.5989759979129303  0.47408304778218735  0.8286265391207053  1.0000
  F   F8        1.0  0.7323973882012069  0.8019220068126742  0.8815073212026618  1.0000
  F   F9        1.0  0.3118623055925127  0.2179318027338013  0.1862002208654303  1.0000
  F   F10       1.0  0.7067338903434575  0.3087227188370889  0.5671982523053885  1.0000
  F   F11       1.0  0.25954630663909484  0.5732597035821527  0.2816570774084539  1.0000
  F   F12       1.0  0.342934937820246  0.8084440637612715  0.6552857873030007  1.0000
data_image122
_chemical_formula_structural       Sb2H2O4F12
_chemical_formula_sum              "Sb2 H2 O4 F12"
_cell_length_a       5.174112999999999
_cell_length_b       7.3015345668964695
_cell_length_c       8.134955459169152
_cell_angle_alpha    90.9395314512041
_cell_angle_beta     97.22151606041648
_cell_angle_gamma    91.96796560956827

_space_group_name_H-M_alt    "P 1"
_space_group_IT_number       1

loop_
  _space_group_symop_operation_xyz
  'x, y, z'

loop_
  _atom_site_type_symbol
  _atom_site_label
  _atom_site_symmetry_multiplicity
  _atom_site_fract_x
  _atom_site_fract_y
  _atom_site_fract_z
  _atom_site_occupancy
  Sb  Sb1       1.0  0.8385592127451673  0.06626401534595061  0.8814548781083431  1.0000
  Sb  Sb2       1.0  0.5037921988550806  0.37177033023908734  0.3446099254942965  1.0000
  H   H1        1.0  0.4303298450540751  0.5506400199374184  0.16636621265206486  1.0000
  H   H2        1.0  0.6502661714330316  0.16361267187312478  0.14858321531210095  1.0000
  O   O1        1.0  0.7928399292140966  0.9691989002749324  0.9138305957894772  1.0000
  O   O2        1.0  0.6347681073239073  0.5827144997310825  0.3433557325624861  1.0000
  O   O3        1.0  0.5513519847299904  0.8521323216846213  0.7185946995450649  1.0000
  O   O4        1.0  0.6391550957923755  0.6941816793405451  0.830450449953787  1.0000
  F   F1        1.0  0.2220906806178391  0.27891744999215007  0.9185502793407068  1.0000
  F   F2        1.0  0.23268036387162283  0.18621077935677022  0.7733597348560579  1.0000
  F   F3        1.0  0.1131005413811863  0.7234900856465174  0.020647944882512093  1.0000
  F   F4        1.0  0.05662383424350992  0.6638601554441266  0.6926508224569261  1.0000
  F   F5        1.0  0.9632937757414766  0.21894031873671338  0.6748077307074709  1.0000
  F   F6        1.0  0.11404847633093596  0.09871009743801551  0.5653362123266561  1.0000
  F   F7        1.0  0.5030094464309514  0.007918026014522184  0.35237386435346707  1.0000
  F   F8        1.0  0.2956049870699644  0.14415216909037554  0.5433768516522832  1.0000
  F   F9        1.0  0.9130677631765138  0.8060847726155771  0.9021681970189093  1.0000
  F   F10       1.0  0.7445755320368335  0.6032617858945741  0.54047266516136  1.0000
  F   F11       1.0  0.6264619359571952  0.9821941400587093  0.06281626495547243  1.0000
  F   F12       1.0  0.8210989730578149  0.684617581544444  0.31716398819116876  1.0000
data_image123
_chemical_formula_structural       Sb2H2O4F12
_chemical_formula_sum              "Sb2 H2 O4 F12"
_cell_length_a       5.174112999999999
_cell_length_b       7.3015345668964695
_cell_length_c       8.134955459169152
_cell_angle_alpha    90.9395314512041
_cell_angle_beta     97.22151606041648
_cell_angle_gamma    91.96796560956827

_space_group_name_H-M_alt    "P 1"
_space_group_IT_number       1

loop_
  _space_group_symop_operation_xyz
  'x, y, z'

loop_
  _atom_site_type_symbol
  _atom_site_label
  _atom_site_symmetry_multiplicity
  _atom_site_fract_x
  _atom_site_fract_y
  _atom_site_fract_z
  _atom_site_occupancy
  Sb  Sb1       1.0  0.38008810600149445  0.4412056098371977  0.03012386482441798  1.0000
  Sb  Sb2       1.0  0.7838026376448397  0.29955369033268653  0.8064745041192509  1.0000
  H   H1        1.0  0.8368795566493645  0.49017729749903083  0.8908618688583374  1.0000
  H   H2        1.0  0.4444665699265897  0.5215133130914182  0.45495520206168294  1.0000
  O   O1        1.0  0.0414252572809346  0.9103959524654783  0.15202661254443228  1.0000
  O   O2        1.0  0.9908493566908874  0.003795619879383594  0.38038850523298606  1.0000
  O   O3        1.0  0.5306420389097184  0.5280487680574879  0.669561700153281  1.0000
  O   O4        1.0  0.02953495751717128  0.9330406317021698  0.5120403761975467  1.0000
  F   F1        1.0  0.34899726463481784  0.43852505809627473  0.9299384852638468  1.0000
  F   F2        1.0  0.49917601724155247  0.10294960075407289  0.7576830095495097  1.0000
  F   F3        1.0  0.34806529283031296  0.6394210206744901  0.6652356766426237  1.0000
  F   F4        1.0  0.18359877832699567  0.21211956042679958  0.37484010169282556  1.0000
  F   F5        1.0  0.2705846168100834  0.019831002689898014  0.257044431000395  1.0000
  F   F6        1.0  0.8961995237041265  0.7578441691621265  0.5606158203154337  1.0000
  F   F7        1.0  0.7788236693595536  0.21066692234307993  0.6346482553344686  1.0000
  F   F8        1.0  0.5241288342513144  0.5680726326827426  0.008553708757972345  1.0000
  F   F9        1.0  0.7668491581571288  0.7133856293658027  0.7213919716596138  1.0000
  F   F10       1.0  0.7242317933123559  0.8546331374964211  0.8173040564579424  1.0000
  F   F11       1.0  0.7089873011864256  0.8432536527689081  0.6295020153993391  1.0000
  F   F12       1.0  0.4672226577604306  0.03369458089582622  0.22705195634625852  1.0000
data_image124
_chemical_formula_structural       Sb2H2O4F12
_chemical_formula_sum              "Sb2 H2 O4 F12"
_cell_length_a       5.174112999999999
_cell_length_b       7.3015345668964695
_cell_length_c       8.134955459169152
_cell_angle_alpha    90.9395314512041
_cell_angle_beta     97.22151606041648
_cell_angle_gamma    91.96796560956827

_space_group_name_H-M_alt    "P 1"
_space_group_IT_number       1

loop_
  _space_group_symop_operation_xyz
  'x, y, z'

loop_
  _atom_site_type_symbol
  _atom_site_label
  _atom_site_symmetry_multiplicity
  _atom_site_fract_x
  _atom_site_fract_y
  _atom_site_fract_z
  _atom_site_occupancy
  Sb  Sb1       1.0  0.9733626640809234  0.6590900330338627  0.11256863072048873  1.0000
  Sb  Sb2       1.0  0.5596239100668754  0.8301200920541305  0.9168782755295979  1.0000
  H   H1        1.0  0.02212536195293069  0.4509399366215803  0.9370743891922757  1.0000
  H   H2        1.0  0.7653760889079422  0.724940923275426  0.7389212291454896  1.0000
  O   O1        1.0  0.19319714308949187  0.2650278380897362  0.38873677991796285  1.0000
  O   O2        1.0  0.6226377667044289  0.3966778898029588  0.015184544143266976  1.0000
  O   O3        1.0  0.7589440837036818  0.20604077191092074  0.22799590787326451  1.0000
  O   O4        1.0  0.940309721743688  0.7656144411303103  0.7001974758459255  1.0000
  F   F1        1.0  0.6287736217491329  0.9726257314905524  0.9167867348296568  1.0000
  F   F2        1.0  0.8397140452289023  0.019593849690863863  0.481535079452442  1.0000
  F   F3        1.0  0.007363179167185763  0.035707307297343505  0.357894782020594  1.0000
  F   F4        1.0  0.1579710205551237  0.18567307735793293  0.6535373209044337  1.0000
  F   F5        1.0  0.956441355345305  0.12178582407068461  0.649082900798021  1.0000
  F   F6        1.0  0.3644908741116524  0.7930519574219943  0.1519009408657439  1.0000
  F   F7        1.0  0.09126714075682685  0.5721821376209846  0.7558064598706551  1.0000
  F   F8        1.0  0.7028172062709928  0.7630833288530994  0.07449624300352298  1.0000
  F   F9        1.0  0.3950142053072341  0.11192833440145478  0.20321135163248982  1.0000
  F   F10       1.0  0.6686791310785338  0.8724345325754257  0.5853044732648414  1.0000
  F   F11       1.0  0.18455075343081262  0.32856342708691955  0.7609008019644534  1.0000
  F   F12       1.0  0.5241184702754254  0.9213190535083413  0.47363450459670275  1.0000
data_image125
_chemical_formula_structural       Sb2H2O4F12
_chemical_formula_sum              "Sb2 H2 O4 F12"
_cell_length_a       5.174112999999999
_cell_length_b       7.3015345668964695
_cell_length_c       8.134955459169152
_cell_angle_alpha    90.9395314512041
_cell_angle_beta     97.22151606041648
_cell_angle_gamma    91.96796560956827

_space_group_name_H-M_alt    "P 1"
_space_group_IT_number       1

loop_
  _space_group_symop_operation_xyz
  'x, y, z'

loop_
  _atom_site_type_symbol
  _atom_site_label
  _atom_site_symmetry_multiplicity
  _atom_site_fract_x
  _atom_site_fract_y
  _atom_site_fract_z
  _atom_site_occupancy
  Sb  Sb1       1.0  0.8747950003598817  0.9164958951296285  0.932790106307948  1.0000
  Sb  Sb2       1.0  0.9023612288219738  0.657596454344457  0.32523535045038443  1.0000
  H   H1        1.0  0.22378918109461665  0.6944018981303088  0.31144884531386197  1.0000
  H   H2        1.0  0.1783264095429331  0.4691472358026658  0.6846216029953212  1.0000
  O   O1        1.0  0.7960347525659017  0.3988968024495989  0.794951967196539  1.0000
  O   O2        1.0  0.7071645600663032  0.007185857917647809  0.5986521900631487  1.0000
  O   O3        1.0  0.6373342971783131  0.2889145488734357  0.4351646059221821  1.0000
  O   O4        1.0  0.9722733300877735  0.7342254650429823  0.3941047416301444  1.0000
  F   F1        1.0  0.3185110604390502  0.5839330554008484  0.7291327980346978  1.0000
  F   F2        1.0  0.5845830101752654  0.8435727945761755  0.9980559357791208  1.0000
  F   F3        1.0  0.7571017749383486  0.2892820080905949  0.6025572402140824  1.0000
  F   F4        1.0  0.6283359116641805  0.26086772288545035  0.6425101406639442  1.0000
  F   F5        1.0  0.9017078012111597  0.3371173801133409  0.20028208027179062  1.0000
  F   F6        1.0  0.4658350273966789  0.5172655066926382  0.9642042459745426  1.0000
  F   F7        1.0  0.108749411534518  0.889057032938581  0.041554010822437704  1.0000
  F   F8        1.0  0.2735140467993915  0.5155649204134534  0.7824628243397456  1.0000
  F   F9        1.0  0.8105300907918718  0.2187730844016187  0.8889332449762151  1.0000
  F   F10       1.0  0.87896565918345  0.25075784369255416  0.08341571115306579  1.0000
  F   F11       1.0  0.1445168266800465  0.6771296554070432  0.38603574965236476  1.0000
  F   F12       1.0  0.3757856205193093  0.04646213888190687  0.007634033856447786  1.0000
data_image126
_chemical_formula_structural       Sb2H2O4F12
_chemical_formula_sum              "Sb2 H2 O4 F12"
_cell_length_a       5.174112999999999
_cell_length_b       7.3015345668964695
_cell_length_c       8.134955459169152
_cell_angle_alpha    90.9395314512041
_cell_angle_beta     97.22151606041648
_cell_angle_gamma    91.96796560956827

_space_group_name_H-M_alt    "P 1"
_space_group_IT_number       1

loop_
  _space_group_symop_operation_xyz
  'x, y, z'

loop_
  _atom_site_type_symbol
  _atom_site_label
  _atom_site_symmetry_multiplicity
  _atom_site_fract_x
  _atom_site_fract_y
  _atom_site_fract_z
  _atom_site_occupancy
  Sb  Sb1       1.0  0.5509619623189792  0.7920350263593718  0.5835535635414999  1.0000
  Sb  Sb2       1.0  0.23779859904948353  0.35437052327324636  0.8951783985103248  1.0000
  H   H1        1.0  0.22347858326975256  0.25451125344261527  0.16790593368932605  1.0000
  H   H2        1.0  0.5675413263961673  0.5056510569556849  0.2928726449026726  1.0000
  O   O1        1.0  0.3799156295135617  0.6722031275567133  0.30798846238758415  1.0000
  O   O2        1.0  0.28962294399389066  0.05040658556390554  0.243628780124709  1.0000
  O   O3        1.0  0.4866949107963592  0.8593663892825134  0.060579768352909014  1.0000
  O   O4        1.0  0.5991950742027257  0.592048873717431  0.7241621430730447  1.0000
  F   F1        1.0  0.9957886110059917  0.9158113591838628  0.6412827160675079  1.0000
  F   F2        1.0  0.12869263940956444  0.07279351082979701  0.8808385955053382  1.0000
  F   F3        1.0  0.2554682468817191  0.21032825767906616  0.7178704863326857  1.0000
  F   F4        1.0  0.09993362455861643  0.4890599901555106  0.041721503366716206  1.0000
  F   F5        1.0  0.8380447656963952  0.6555245061172172  0.2381370909170073  1.0000
  F   F6        1.0  0.1649892705027014  0.3592571315020905  0.9340531374764396  1.0000
  F   F7        1.0  0.4728202222613618  0.023005569135420956  0.5365902762132464  1.0000
  F   F8        1.0  0.6690385825932026  0.926848062848876  0.6944522991252597  1.0000
  F   F9        1.0  0.39091692365764175  0.35889640798268374  0.5245034011459211  1.0000
  F   F10       1.0  0.7814942443510517  0.4556395692634396  0.27463523671031  1.0000
  F   F11       1.0  0.5986499530990841  0.2618481531389989  0.05633717630553292  1.0000
  F   F12       1.0  0.4286781857954338  0.002571750315837562  0.6075275780749507  1.0000
data_image127
_chemical_formula_structural       Sb2H2O4F12
_chemical_formula_sum              "Sb2 H2 O4 F12"
_cell_length_a       5.174112999999999
_cell_length_b       7.3015345668964695
_cell_length_c       8.134955459169152
_cell_angle_alpha    90.9395314512041
_cell_angle_beta     97.22151606041648
_cell_angle_gamma    91.96796560956827

_space_group_name_H-M_alt    "P 1"
_space_group_IT_number       1

loop_
  _space_group_symop_operation_xyz
  'x, y, z'

loop_
  _atom_site_type_symbol
  _atom_site_label
  _atom_site_symmetry_multiplicity
  _atom_site_fract_x
  _atom_site_fract_y
  _atom_site_fract_z
  _atom_site_occupancy
  Sb  Sb1       1.0  0.5361200998886488  0.5671374192461371  0.6341992101224605  1.0000
  Sb  Sb2       1.0  0.31566356051916955  0.8142136895330623  0.22531500249169767  1.0000
  H   H1        1.0  0.769133911584504  0.9172822704422288  0.708401364274323  1.0000
  H   H2        1.0  0.40065711294300854  0.2577815447366447  0.792077612830326  1.0000
  O   O1        1.0  0.5105659106629901  0.007151437806896865  0.6120450065936893  1.0000
  O   O2        1.0  0.8003459587635007  0.4609240636928007  0.8595429465640336  1.0000
  O   O3        1.0  0.9112533832667395  0.69129433715716  0.9201740371499909  1.0000
  O   O4        1.0  0.33391418342944235  0.8665046583628282  0.7508135852403939  1.0000
  F   F1        1.0  0.6170808947645128  0.8957692550029606  0.9941574102267623  1.0000
  F   F2        1.0  0.16317836835514754  0.7920948359533213  0.8997385391558055  1.0000
  F   F3        1.0  0.6038003610046871  0.701126479452796  0.6654838041577023  1.0000
  F   F4        1.0  0.1609742985747289  0.4670101157971658  0.7886823079315946  1.0000
  F   F5        1.0  0.9163350127637386  0.21446048427606001  0.6412410769344206  1.0000
  F   F6        1.0  0.25552175589837134  0.31489530377439223  0.47052510087087285  1.0000
  F   F7        1.0  0.08360872609773651  0.9488119439483853  0.9003390759753529  1.0000
  F   F8        1.0  0.80160116776824  0.29595742115634494  0.6257239809492603  1.0000
  F   F9        1.0  0.3162038527952973  0.22830225953657646  0.2636998737580143  1.0000
  F   F10       1.0  0.40045333036687225  0.8885884357005125  0.6728794374212157  1.0000
  F   F11       1.0  0.40710390532331076  0.5662494590214919  0.2756935094075743  1.0000
  F   F12       1.0  0.5936303626949666  0.09109161572996527  0.5858246549032629  1.0000
data_image128
_chemical_formula_structural       Sb2H2O4F12
_chemical_formula_sum              "Sb2 H2 O4 F12"
_cell_length_a       5.174112999999999
_cell_length_b       7.3015345668964695
_cell_length_c       8.134955459169152
_cell_angle_alpha    90.9395314512041
_cell_angle_beta     97.22151606041648
_cell_angle_gamma    91.96796560956827

_space_group_name_H-M_alt    "P 1"
_space_group_IT_number       1

loop_
  _space_group_symop_operation_xyz
  'x, y, z'

loop_
  _atom_site_type_symbol
  _atom_site_label
  _atom_site_symmetry_multiplicity
  _atom_site_fract_x
  _atom_site_fract_y
  _atom_site_fract_z
  _atom_site_occupancy
  Sb  Sb1       1.0  0.1605160114413593  0.6733403852413176  0.7580605877446942  1.0000
  Sb  Sb2       1.0  0.026806160600244766  0.7150330194272101  0.23431049037026241  1.0000
  H   H1        1.0  0.4500065171159804  0.2717397367232479  0.5881335487356409  1.0000
  H   H2        1.0  0.24014003691263497  0.5443412519452977  0.9194515840499662  1.0000
  O   O1        1.0  0.5767483567760792  0.17422834923490882  0.9228672161116265  1.0000
  O   O2        1.0  0.4782232723373454  0.8786882518907078  0.14411885844310746  1.0000
  O   O3        1.0  0.794312831829302  0.8635301606263965  0.34680227690114407  1.0000
  O   O4        1.0  0.17737479470088147  0.04838806751649827  0.12975093931891024  1.0000
  F   F1        1.0  0.11072778655216098  0.36253382987342775  0.27096816652920097  1.0000
  F   F2        1.0  0.26057121390476823  0.28112022700952366  0.9390932397218421  1.0000
  F   F3        1.0  0.23061182087258203  0.5622979046056571  0.5006062310858397  1.0000
  F   F4        1.0  0.34821073740022257  0.3879108588153031  0.6842349610524252  1.0000
  F   F5        1.0  0.32801432569976896  0.6311067075002939  0.10243578703193634  1.0000
  F   F6        1.0  0.6418598394375294  0.9048915133753326  0.8711943682428682  1.0000
  F   F7        1.0  0.5622843147139065  0.5545167846576078  0.034638014549273066  1.0000
  F   F8        1.0  0.3764166785404086  0.3560173127298185  0.08394629615941085  1.0000
  F   F9        1.0  0.3113424409239087  0.6506972205243073  0.13336923907627352  1.0000
  F   F10       1.0  0.4772383089293726  0.6699217018322088  0.7012343412206974  1.0000
  F   F11       1.0  0.0005132291844347492  0.18734748027054593  0.778590083878953  1.0000
  F   F12       1.0  0.0031923453716444783  0.7769038389669731  0.14116171677596867  1.0000
data_image129
_chemical_formula_structural       Sb2H2O4F12
_chemical_formula_sum              "Sb2 H2 O4 F12"
_cell_length_a       5.174112999999999
_cell_length_b       7.3015345668964695
_cell_length_c       8.134955459169152
_cell_angle_alpha    90.9395314512041
_cell_angle_beta     97.22151606041648
_cell_angle_gamma    91.96796560956827

_space_group_name_H-M_alt    "P 1"
_space_group_IT_number       1

loop_
  _space_group_symop_operation_xyz
  'x, y, z'

loop_
  _atom_site_type_symbol
  _atom_site_label
  _atom_site_symmetry_multiplicity
  _atom_site_fract_x
  _atom_site_fract_y
  _atom_site_fract_z
  _atom_site_occupancy
  Sb  Sb1       1.0  0.08306812154478393  0.8043956270557828  0.9636713989020791  1.0000
  Sb  Sb2       1.0  0.9636301142527373  0.4092830781592056  0.7857465071137995  1.0000
  H   H1        1.0  0.7652981103165075  0.7721602072706446  0.6143664472037926  1.0000
  H   H2        1.0  0.9704030323773623  0.009825593449932057  0.2924257664126344  1.0000
  O   O1        1.0  0.4607959325076081  0.4018978979147505  0.23252011433942243  1.0000
  O   O2        1.0  0.6237328154384159  0.9811867313692346  0.09593165025580674  1.0000
  O   O3        1.0  0.8253342680400237  0.9335593123687431  0.9609668265411528  1.0000
  O   O4        1.0  0.16130886581959203  0.2055499668349512  0.07245879643596709  1.0000
  F   F1        1.0  0.5041798213496804  0.08115487382747233  0.03638597088865936  1.0000
  F   F2        1.0  0.439973772095982  0.6647841891972348  0.8304523191181943  1.0000
  F   F3        1.0  0.7571526084648212  0.6701311733231705  0.838952544843778  1.0000
  F   F4        1.0  0.988131119083846  0.6792215228779241  0.41805906587978825  1.0000
  F   F5        1.0  0.34750579652609304  0.27709457726450637  0.8755245117390587  1.0000
  F   F6        1.0  0.8469145053531975  0.18917430647707079  0.1951470296480693  1.0000
  F   F7        1.0  0.335685528232716  0.8467936282977462  0.18879717258096207  1.0000
  F   F8        1.0  0.597030839882791  0.9736288072090247  0.43446699154446833  1.0000
  F   F9        1.0  0.2661999651172664  0.8460314229450887  0.010811316489707679  1.0000
  F   F10       1.0  0.6254031633143313  0.09284721351286862  0.5853580916882493  1.0000
  F   F11       1.0  0.27476542418298777  0.41309569842997007  0.7530279402053566  1.0000
  F   F12       1.0  0.6965711316879606  0.38287014595698565  0.532433575601317  1.0000
data_image130
_chemical_formula_structural       Sb2H2O4F12
_chemical_formula_sum              "Sb2 H2 O4 F12"
_cell_length_a       5.174112999999999
_cell_length_b       7.3015345668964695
_cell_length_c       8.134955459169152
_cell_angle_alpha    90.9395314512041
_cell_angle_beta     97.22151606041648
_cell_angle_gamma    91.96796560956827

_space_group_name_H-M_alt    "P 1"
_space_group_IT_number       1

loop_
  _space_group_symop_operation_xyz
  'x, y, z'

loop_
  _atom_site_type_symbol
  _atom_site_label
  _atom_site_symmetry_multiplicity
  _atom_site_fract_x
  _atom_site_fract_y
  _atom_site_fract_z
  _atom_site_occupancy
  Sb  Sb1       1.0  0.8077157259103842  0.6473665959056234  0.08101195859489962  1.0000
  Sb  Sb2       1.0  0.08080045603855979  0.1630010596709326  0.6149317287636222  1.0000
  H   H1        1.0  0.012410018360242248  0.6747573190950789  0.5261571862502024  1.0000
  H   H2        1.0  0.2033665720373392  0.9158781116057071  0.0462297304184176  1.0000
  O   O1        1.0  0.7794328178861178  0.3808699524088297  0.8572985358769074  1.0000
  O   O2        1.0  0.8621481881418731  0.21665653958916664  0.1766113493940793  1.0000
  O   O3        1.0  0.36846116522792727  0.6595960892736912  0.09796344742790097  1.0000
  O   O4        1.0  0.22165662646875717  0.6455217027105391  0.3220596560277045  1.0000
  F   F1        1.0  0.776841560844332  0.8626767282839864  0.48287558497395366  1.0000
  F   F2        1.0  0.7367004102561623  0.9685156515333802  0.26158088649390265  1.0000
  F   F3        1.0  0.6530677641057991  0.28308683339491836  0.506693750852719  1.0000
  F   F4        1.0  0.5527204051613808  0.13291124513489194  0.9681602951604873  1.0000
  F   F5        1.0  0.24425126850837842  0.37460324546555057  0.8497324226686942  1.0000
  F   F6        1.0  0.8346513870637864  0.31571936103864573  0.3205700286634965  1.0000
  F   F7        1.0  0.7111432761885226  0.9107897887733998  0.7747420611121925  1.0000
  F   F8        1.0  0.7965960814617574  0.350918903517595  0.7190462222206406  1.0000
  F   F9        1.0  0.036033875454450026  0.5938656557555078  0.5889459371974226  1.0000
  F   F10       1.0  0.9712739203241654  0.6585303611936979  0.4627758971764706  1.0000
  F   F11       1.0  0.49861267259984743  0.24687885848106816  0.29598843472922454  1.0000
  F   F12       1.0  0.5419419136051147  0.6165951113216579  0.7376225622720085  1.0000
data_image131
_chemical_formula_structural       Sb2H2O4F12
_chemical_formula_sum              "Sb2 H2 O4 F12"
_cell_length_a       5.174112999999999
_cell_length_b       7.3015345668964695
_cell_length_c       8.134955459169152
_cell_angle_alpha    90.9395314512041
_cell_angle_beta     97.22151606041648
_cell_angle_gamma    91.96796560956827

_space_group_name_H-M_alt    "P 1"
_space_group_IT_number       1

loop_
  _space_group_symop_operation_xyz
  'x, y, z'

loop_
  _atom_site_type_symbol
  _atom_site_label
  _atom_site_symmetry_multiplicity
  _atom_site_fract_x
  _atom_site_fract_y
  _atom_site_fract_z
  _atom_site_occupancy
  Sb  Sb1       1.0  0.5505624276120216  0.37427285400917754  0.4100456610613037  1.0000
  Sb  Sb2       1.0  0.6899397745582974  0.8664060734736267  0.5559970159811201  1.0000
  H   H1        1.0  0.9343395088799298  0.12660977785708383  0.1396390455774963  1.0000
  H   H2        1.0  0.02205463917925954  0.9666026560298633  0.47237903682980686  1.0000
  O   O1        1.0  0.9178644834901206  0.0597693870367948  0.30258094263263047  1.0000
  O   O2        1.0  0.09306426634429954  0.9893897121073678  0.5894266137038358  1.0000
  O   O3        1.0  0.5999943624483421  0.6153350085369311  0.6548279158741934  1.0000
  O   O4        1.0  0.18730876501649618  0.438532903266605  0.41871571191586554  1.0000
  F   F1        1.0  0.47809180710464716  0.9744836299214512  0.5094722955254838  1.0000
  F   F2        1.0  0.04397630994208157  0.6025185915641487  0.24380625318735838  1.0000
  F   F3        1.0  0.17597347020637244  0.4287946278673189  0.6697100437741028  1.0000
  F   F4        1.0  0.36256399590638466  0.8722550414095167  0.25008896162034944  1.0000
  F   F5        1.0  0.07636500318767503  0.6151774876052514  0.5236502547984401  1.0000
  F   F6        1.0  0.3984654494561255  0.7521133562695468  0.10617600566183683  1.0000
  F   F7        1.0  0.7109709765645675  0.3457080858788686  0.6292388017172925  1.0000
  F   F8        1.0  0.9610333819873631  0.48219414848244924  0.9628770801064093  1.0000
  F   F9        1.0  0.3144148483115714  0.675791195302736  0.3428295509656891  1.0000
  F   F10       1.0  0.12690468109212816  0.15198186674388126  0.8175723271269817  1.0000
  F   F11       1.0  0.3125898236394278  0.6978067657037172  0.4471756104248925  1.0000
  F   F12       1.0  0.40881661374805844  0.5695254404563457  0.7077162344940007  1.0000
data_image132
_chemical_formula_structural       Sb2H2O4F12
_chemical_formula_sum              "Sb2 H2 O4 F12"
_cell_length_a       5.174112999999999
_cell_length_b       7.3015345668964695
_cell_length_c       8.134955459169152
_cell_angle_alpha    90.9395314512041
_cell_angle_beta     97.22151606041648
_cell_angle_gamma    91.96796560956827

_space_group_name_H-M_alt    "P 1"
_space_group_IT_number       1

loop_
  _space_group_symop_operation_xyz
  'x, y, z'

loop_
  _atom_site_type_symbol
  _atom_site_label
  _atom_site_symmetry_multiplicity
  _atom_site_fract_x
  _atom_site_fract_y
  _atom_site_fract_z
  _atom_site_occupancy
  Sb  Sb1       1.0  0.9548727940709796  0.025089060771279037  0.005256932723568752  1.0000
  Sb  Sb2       1.0  0.08855515400500735  0.37080357811646536  0.8977214840997476  1.0000
  H   H1        1.0  0.8061997254844755  0.5555133979651146  0.9032257725484669  1.0000
  H   H2        1.0  0.607462071813643  0.5798728993249824  0.9535196258802898  1.0000
  O   O1        1.0  0.4411541008739732  0.7428391698922496  0.07071733905468136  1.0000
  O   O2        1.0  0.5100778078485746  0.46267644059844315  0.4173739510588348  1.0000
  O   O3        1.0  0.1117704602656886  0.23748215817613527  0.733579876654403  1.0000
  O   O4        1.0  0.03755424715927802  0.8136378878843971  0.7927659176057205  1.0000
  F   F1        1.0  0.4399604192003608  0.2204588579479605  0.5599144200095907  1.0000
  F   F2        1.0  0.4614710282185115  0.6393589032813907  0.04774150374578312  1.0000
  F   F3        1.0  0.8522032690380001  0.04567024336211034  0.45235878670064267  1.0000
  F   F4        1.0  0.025481348478933796  0.83505972760031  0.2935996879241429  1.0000
  F   F5        1.0  0.7819695393554866  0.2600991697399877  0.5990891369269775  1.0000
  F   F6        1.0  0.4800825237762183  0.9950761133804917  0.11211635879590176  1.0000
  F   F7        1.0  0.24498878041049466  0.2669051001576008  0.13913951662834734  1.0000
  F   F8        1.0  0.514462404884398  0.8606950426296862  0.6685930124076549  1.0000
  F   F9        1.0  0.45121822439250536  0.5240073201712221  0.5337556834565476  1.0000
  F   F10       1.0  0.896516440261621  0.7630131603800692  0.4110322983178776  1.0000
  F   F11       1.0  0.15957824321230873  0.20591000848799013  0.7784163120450103  1.0000
  F   F12       1.0  0.8530800301523414  0.8433241049060598  0.22606559027917683  1.0000
data_image133
_chemical_formula_structural       Sb2H2O4F12
_chemical_formula_sum              "Sb2 H2 O4 F12"
_cell_length_a       5.174112999999999
_cell_length_b       7.3015345668964695
_cell_length_c       8.134955459169152
_cell_angle_alpha    90.9395314512041
_cell_angle_beta     97.22151606041648
_cell_angle_gamma    91.96796560956827

_space_group_name_H-M_alt    "P 1"
_space_group_IT_number       1

loop_
  _space_group_symop_operation_xyz
  'x, y, z'

loop_
  _atom_site_type_symbol
  _atom_site_label
  _atom_site_symmetry_multiplicity
  _atom_site_fract_x
  _atom_site_fract_y
  _atom_site_fract_z
  _atom_site_occupancy
  Sb  Sb1       1.0  0.6895645258482546  0.4703190486179665  0.807886304159183  1.0000
  Sb  Sb2       1.0  0.34999689364485675  0.7099784453457687  0.4729467735160142  1.0000
  H   H1        1.0  0.12253513134783134  0.3152638294850476  0.508444613777101  1.0000
  H   H2        1.0  0.3377186059951782  0.8878131479432341  0.06117641873424873  1.0000
  O   O1        1.0  0.38293854205403477  0.2883994515577797  0.11234643508214504  1.0000
  O   O2        1.0  0.4805363326740917  0.38727829477284104  0.0050279267597943544  1.0000
  O   O3        1.0  0.9682391000678763  0.5251382566057146  0.3882440491906891  1.0000
  O   O4        1.0  0.3554404462338425  0.7322402893332765  0.29549476166721433  1.0000
  F   F1        1.0  0.39297076826915145  0.007394180865958333  0.19879023742396384  1.0000
  F   F2        1.0  0.24827847868436947  0.5537619242677465  0.4680543085851241  1.0000
  F   F3        1.0  0.3945108153857291  0.666067333000683  0.9807071411196375  1.0000
  F   F4        1.0  0.7338631454040296  0.8682403065904509  0.7700148934964091  1.0000
  F   F5        1.0  0.43925865489291027  0.7100644572055899  0.6799344791086241  1.0000
  F   F6        1.0  0.820136156398803  0.9123650560068199  0.9027500301017426  1.0000
  F   F7        1.0  0.4836911403108388  0.9405343850521604  0.49186716217081994  1.0000
  F   F8        1.0  0.9443513820879161  0.7794371833540481  0.7007278007513378  1.0000
  F   F9        1.0  0.6445115402166266  0.6690734038857045  0.5136282440798823  1.0000
  F   F10       1.0  0.5898691893671639  0.5267668511951342  0.21669454110087827  1.0000
  F   F11       1.0  0.9391903981013456  0.8860042102169245  0.9073603686774732  1.0000
  F   F12       1.0  0.28316052948503057  0.5064224241068587  0.0733922150102444  1.0000
data_image134
_chemical_formula_structural       Sb2H2O4F12
_chemical_formula_sum              "Sb2 H2 O4 F12"
_cell_length_a       5.174112999999999
_cell_length_b       7.3015345668964695
_cell_length_c       8.134955459169152
_cell_angle_alpha    90.9395314512041
_cell_angle_beta     97.22151606041648
_cell_angle_gamma    91.96796560956827

_space_group_name_H-M_alt    "P 1"
_space_group_IT_number       1

loop_
  _space_group_symop_operation_xyz
  'x, y, z'

loop_
  _atom_site_type_symbol
  _atom_site_label
  _atom_site_symmetry_multiplicity
  _atom_site_fract_x
  _atom_site_fract_y
  _atom_site_fract_z
  _atom_site_occupancy
  Sb  Sb1       1.0  0.9740438491862733  0.28997474248171784  0.6842792889219709  1.0000
  Sb  Sb2       1.0  0.9584817568356812  0.029536927468143404  0.3118191361136269  1.0000
  H   H1        1.0  0.9211983167915605  0.848745288036298  0.5950234134215862  1.0000
  H   H2        1.0  0.7862897661980242  0.23099535362416646  0.26149654580513015  1.0000
  O   O1        1.0  0.43676358432276174  0.4561934816010762  0.6270956123480573  1.0000
  O   O2        1.0  0.2749038650363218  0.6216074253898114  0.6618470384855755  1.0000
  O   O3        1.0  0.5141199881909415  0.2631186640355736  0.32022998195316177  1.0000
  O   O4        1.0  0.5606859150284436  0.9506604948546737  0.3614941001869738  1.0000
  F   F1        1.0  0.671616327483207  0.694986721733585  0.17243887577205896  1.0000
  F   F2        1.0  0.5951829986879602  0.6719770621275529  0.31572643242543563  1.0000
  F   F3        1.0  0.020899247741908766  0.2647983619644947  0.2169921366876224  1.0000
  F   F4        1.0  0.600982283562189  0.8545541244966444  0.6810425886069424  1.0000
  F   F5        1.0  0.20264076290186495  0.9006504875142127  0.6628886398816576  1.0000
  F   F6        1.0  0.11475448124110699  0.2645178114180453  0.4533386915572919  1.0000
  F   F7        1.0  0.8056053456384689  0.8742424111260334  0.08598396391607821  1.0000
  F   F8        1.0  0.5669746957719326  0.9450870211508118  0.6823197869234718  1.0000
  F   F9        1.0  0.4219717876985669  0.0927225093182642  0.9987163982004859  1.0000
  F   F10       1.0  0.018115112790837884  0.5943210119730793  0.80465305398684  1.0000
  F   F11       1.0  0.23782339108583983  0.6124198107863776  0.2528955361703993  1.0000
  F   F12       1.0  0.12383618508465588  0.09734623844269663  0.9380822057719342  1.0000
data_image135
_chemical_formula_structural       Sb2H2O4F12
_chemical_formula_sum              "Sb2 H2 O4 F12"
_cell_length_a       5.174112999999999
_cell_length_b       7.3015345668964695
_cell_length_c       8.134955459169152
_cell_angle_alpha    90.9395314512041
_cell_angle_beta     97.22151606041648
_cell_angle_gamma    91.96796560956827

_space_group_name_H-M_alt    "P 1"
_space_group_IT_number       1

loop_
  _space_group_symop_operation_xyz
  'x, y, z'

loop_
  _atom_site_type_symbol
  _atom_site_label
  _atom_site_symmetry_multiplicity
  _atom_site_fract_x
  _atom_site_fract_y
  _atom_site_fract_z
  _atom_site_occupancy
  Sb  Sb1       1.0  0.43565487099112943  0.833529434108641  0.2608002067718189  1.0000
  Sb  Sb2       1.0  0.5554803196828288  0.4098572805232834  0.954425808522501  1.0000
  H   H1        1.0  0.7727135170134716  0.2204704766627401  0.2530786213465035  1.0000
  H   H2        1.0  0.2947891750372946  0.6689376539870864  0.7499764953972772  1.0000
  O   O1        1.0  0.08666718544554897  0.5235900419938844  0.25578899937681854  1.0000
  O   O2        1.0  0.8721546269371174  0.47248726803809404  0.44024202349828556  1.0000
  O   O3        1.0  0.06772849219851196  0.37926427117781714  0.648691102873272  1.0000
  O   O4        1.0  0.4805482655647211  0.5434339168132283  0.3000647322041914  1.0000
  F   F1        1.0  0.9210172640159726  0.9469830349553376  0.1594605246791616  1.0000
  F   F2        1.0  0.49543198460014537  0.015646869724150747  0.6290164546226151  1.0000
  F   F3        1.0  0.6130626989470329  0.9193509112592437  0.6893409527547192  1.0000
  F   F4        1.0  0.25356703478610143  0.2785741161496844  0.16958926140796393  1.0000
  F   F5        1.0  0.5566824311390519  0.10766653413884342  0.9618813719303034  1.0000
  F   F6        1.0  0.6860034153796732  0.43079994375875685  0.8064460961759323  1.0000
  F   F7        1.0  0.14128920994699  0.05900572467362508  0.8988859762466745  1.0000
  F   F8        1.0  0.17405299888923764  0.9618677507423854  0.05229975422844291  1.0000
  F   F9        1.0  0.30128292508015875  0.04570712454733439  0.1860955223964993  1.0000
  F   F10       1.0  0.0053839333122596145  0.7668593527923804  0.4537368695018813  1.0000
  F   F11       1.0  0.25621830633463105  0.15671504399506375  0.8038109170738608  1.0000
  F   F12       1.0  0.41952431406389223  0.6578890702221543  0.992025894462131  1.0000
data_image136
_chemical_formula_structural       Sb2H2O4F12
_chemical_formula_sum              "Sb2 H2 O4 F12"
_cell_length_a       5.174112999999999
_cell_length_b       7.3015345668964695
_cell_length_c       8.134955459169152
_cell_angle_alpha    90.9395314512041
_cell_angle_beta     97.22151606041648
_cell_angle_gamma    91.96796560956827

_space_group_name_H-M_alt    "P 1"
_space_group_IT_number       1

loop_
  _space_group_symop_operation_xyz
  'x, y, z'

loop_
  _atom_site_type_symbol
  _atom_site_label
  _atom_site_symmetry_multiplicity
  _atom_site_fract_x
  _atom_site_fract_y
  _atom_site_fract_z
  _atom_site_occupancy
  Sb  Sb1       1.0  0.39433766741422005  0.7065891343227122  0.4125849400879815  1.0000
  Sb  Sb2       1.0  0.9505110062746098  0.4159652748494409  0.36813962954329327  1.0000
  H   H1        1.0  0.9685633250628598  0.9986421776702628  0.37375145638361573  1.0000
  H   H2        1.0  0.36737117846496403  0.5340282834367827  0.11025075218640268  1.0000
  O   O1        1.0  0.41994133353000507  0.8306202947278507  0.30592121748486534  1.0000
  O   O2        1.0  0.8528157122200355  0.07049282710067928  0.9946978653315455  1.0000
  O   O3        1.0  0.8521215356886387  0.7315349839045666  0.6949650500991993  1.0000
  O   O4        1.0  0.45124740604660474  0.4446271171909757  0.31099687051028013  1.0000
  F   F1        1.0  0.9762553782202303  0.12087872717529535  0.339304992929101  1.0000
  F   F2        1.0  0.36460424249526113  0.1848019459284842  0.661913099931553  1.0000
  F   F3        1.0  0.6656567724639899  0.5381308909018117  0.6668905340484343  1.0000
  F   F4        1.0  0.4886245480302023  0.9270010763721075  0.6465888288803399  1.0000
  F   F5        1.0  0.5110476865665987  0.5105676773819141  0.2992613206806709  1.0000
  F   F6        1.0  0.48506843647919595  0.08431976201245561  0.061359600906143896  1.0000
  F   F7        1.0  0.3511073900735937  0.4864875207422301  0.8127405001723673  1.0000
  F   F8        1.0  0.43926991894841194  0.8645684555781372  0.7717720920045394  1.0000
  F   F9        1.0  0.4258282983646495  0.08987929129216354  0.21514901288901456  1.0000
  F   F10       1.0  0.3233236674568616  0.9302142788656056  0.9014417114085518  1.0000
  F   F11       1.0  0.15423681994434446  0.7425487658765633  0.007521026309404988  1.0000
  F   F12       1.0  0.15737838846689556  0.1977591917384416  0.47771179082337767  1.0000
data_image137
_chemical_formula_structural       Sb2H2O4F12
_chemical_formula_sum              "Sb2 H2 O4 F12"
_cell_length_a       5.174112999999999
_cell_length_b       7.3015345668964695
_cell_length_c       8.134955459169152
_cell_angle_alpha    90.9395314512041
_cell_angle_beta     97.22151606041648
_cell_angle_gamma    91.96796560956827

_space_group_name_H-M_alt    "P 1"
_space_group_IT_number       1

loop_
  _space_group_symop_operation_xyz
  'x, y, z'

loop_
  _atom_site_type_symbol
  _atom_site_label
  _atom_site_symmetry_multiplicity
  _atom_site_fract_x
  _atom_site_fract_y
  _atom_site_fract_z
  _atom_site_occupancy
  Sb  Sb1       1.0  0.23729355525574647  0.2711278446513461  0.1510490903747268  1.0000
  Sb  Sb2       1.0  0.27815216677845456  0.36864156636875123  0.0028963402583030984  1.0000
  H   H1        1.0  0.2868237631046213  0.9986387866665609  0.254276359337382  1.0000
  H   H2        1.0  0.2972198254428804  0.3210538576677209  0.03509481344372034  1.0000
  O   O1        1.0  0.1909013199619949  0.8754744646430481  0.9457159191952087  1.0000
  O   O2        1.0  0.43353044099058025  0.8487459479947574  0.20747492788359523  1.0000
  O   O3        1.0  0.5172699319664389  0.1691042758175172  0.7743591166727128  1.0000
  O   O4        1.0  0.40693908018874936  0.2776793579105288  0.10353214165661484  1.0000
  F   F1        1.0  0.3008102918975055  0.8363456563092768  0.4357727091992274  1.0000
  F   F2        1.0  0.9542309787211707  0.8786056296958122  0.3592932666942943  1.0000
  F   F3        1.0  0.12744499777909368  0.30715581867843866  0.8143445933237672  1.0000
  F   F4        1.0  0.13337149447761476  0.49744181922869757  0.45796053105732426  1.0000
  F   F5        1.0  0.602492147940211  0.8151080003008246  0.6015517789201112  1.0000
  F   F6        1.0  0.02670698333531618  0.422112070460571  0.2332444235944422  1.0000
  F   F7        1.0  0.16658582963282242  0.3119300437683705  0.823589491614257  1.0000
  F   F8        1.0  0.9385923543013632  0.33375308484164634  0.31914361074450426  1.0000
  F   F9        1.0  0.6676756109809503  0.19663529067474883  0.23995424731401727  1.0000
  F   F10       1.0  0.8742598078097217  0.5748424281191546  0.7546304304560181  1.0000
  F   F11       1.0  0.9049872068499099  0.31029400703846477  0.595583721093135  1.0000
  F   F12       1.0  0.4365576374329976  0.315788566484116  0.860770798404701  1.0000
data_image138
_chemical_formula_structural       Sb2H2O4F12
_chemical_formula_sum              "Sb2 H2 O4 F12"
_cell_length_a       5.174112999999999
_cell_length_b       7.3015345668964695
_cell_length_c       8.134955459169152
_cell_angle_alpha    90.9395314512041
_cell_angle_beta     97.22151606041648
_cell_angle_gamma    91.96796560956827

_space_group_name_H-M_alt    "P 1"
_space_group_IT_number       1

loop_
  _space_group_symop_operation_xyz
  'x, y, z'

loop_
  _atom_site_type_symbol
  _atom_site_label
  _atom_site_symmetry_multiplicity
  _atom_site_fract_x
  _atom_site_fract_y
  _atom_site_fract_z
  _atom_site_occupancy
  Sb  Sb1       1.0  0.3206870650756173  0.13042863149894401  0.16361226636217907  1.0000
  Sb  Sb2       1.0  0.8620600541398744  0.6486700516252313  0.24453898996580392  1.0000
  H   H1        1.0  0.6763607768225484  0.7636806699447334  0.7822330761700869  1.0000
  H   H2        1.0  0.7015655941795558  0.5900220874173101  0.9591640500002541  1.0000
  O   O1        1.0  0.6687134727835655  0.15903211873956025  0.5595979079371318  1.0000
  O   O2        1.0  0.793607144150883  0.9457990165683441  0.8001070867758244  1.0000
  O   O3        1.0  0.22632682183757424  0.2990521739120595  0.4512710862345557  1.0000
  O   O4        1.0  0.9075760149571579  0.8675629039062187  0.1338048914913088  1.0000
  F   F1        1.0  0.3109585423953831  0.9601119901053607  0.3547093967208639  1.0000
  F   F2        1.0  0.7453015496648732  0.9451490423816722  0.803215351770632  1.0000
  F   F3        1.0  0.7426048329580226  0.6433285416896979  0.035372717917198315  1.0000
  F   F4        1.0  0.7650665805558674  0.35875123902224004  0.007006658532191068  1.0000
  F   F5        1.0  0.14859569817781448  0.2346179032465443  0.27056385383184534  1.0000
  F   F6        1.0  0.05308932228945196  0.6265026954642963  0.008443345286650583  1.0000
  F   F7        1.0  0.28610998613294214  0.34900011024728883  0.9157115769194206  1.0000
  F   F8        1.0  0.6120300176553428  0.573402330133149  0.21029864164302126  1.0000
  F   F9        1.0  0.7526206106267637  0.0015969257801771164  0.004023618239443749  1.0000
  F   F10       1.0  0.09493176528485492  0.8847353868186474  0.4775422967795748  1.0000
  F   F11       1.0  0.7934208671795204  0.567372276680544  0.983255685401673  1.0000
  F   F12       1.0  0.841145452883211  0.28956658218521625  0.6386374809662811  1.0000
data_image139
_chemical_formula_structural       Sb2H2O4F12
_chemical_formula_sum              "Sb2 H2 O4 F12"
_cell_length_a       5.174112999999999
_cell_length_b       7.3015345668964695
_cell_length_c       8.134955459169152
_cell_angle_alpha    90.9395314512041
_cell_angle_beta     97.22151606041648
_cell_angle_gamma    91.96796560956827

_space_group_name_H-M_alt    "P 1"
_space_group_IT_number       1

loop_
  _space_group_symop_operation_xyz
  'x, y, z'

loop_
  _atom_site_type_symbol
  _atom_site_label
  _atom_site_symmetry_multiplicity
  _atom_site_fract_x
  _atom_site_fract_y
  _atom_site_fract_z
  _atom_site_occupancy
  Sb  Sb1       1.0  0.39298803557176143  0.7659317562938668  0.7907608150271699  1.0000
  Sb  Sb2       1.0  0.18533208189182915  0.12274777234415524  0.03270370958489366  1.0000
  H   H1        1.0  0.8532351559842937  0.3257576373289339  0.8593070629285648  1.0000
  H   H2        1.0  0.5771789245773107  0.9231688972358825  0.5180936808465049  1.0000
  O   O1        1.0  0.767905067303218  0.7617986006080173  0.46855696255806834  1.0000
  O   O2        1.0  0.7801954811729956  0.17708028625929728  0.47396778292022645  1.0000
  O   O3        1.0  0.5337609983980656  0.6617574364645407  0.8402063376470323  1.0000
  O   O4        1.0  0.9636280299455393  0.786364903091453  0.7617924468358979  1.0000
  F   F1        1.0  0.7423013024963439  0.43026615981943905  0.9529057873878628  1.0000
  F   F2        1.0  0.6624280786199961  0.8718012025638018  0.6245895468018716  1.0000
  F   F3        1.0  0.043738206797570456  0.7039800032980565  0.7957075561280362  1.0000
  F   F4        1.0  0.9909413708955981  0.8315771851630416  0.277960077743046  1.0000
  F   F5        1.0  0.35741270054131746  0.1253504152991809  0.8007837364857551  1.0000
  F   F6        1.0  0.14580871583893895  0.40853585524018854  0.08922495578008238  1.0000
  F   F7        1.0  0.3166693280218169  0.12382520052779  0.6390070801135153  1.0000
  F   F8        1.0  0.31254601245746017  0.6453819547741659  0.006936599762411788  1.0000
  F   F9        1.0  0.4953545312891947  0.16566526658425573  0.29396960040321574  1.0000
  F   F10       1.0  0.9305524419178255  0.695199291309109  0.8404681209358387  1.0000
  F   F11       1.0  0.31016331509454176  0.7687944511999376  0.3999511179572437  1.0000
  F   F12       1.0  0.9845120132085867  0.7905726593453437  0.030203903384972364  1.0000
data_image140
_chemical_formula_structural       Sb2H2O4F12
_chemical_formula_sum              "Sb2 H2 O4 F12"
_cell_length_a       5.174112999999999
_cell_length_b       7.3015345668964695
_cell_length_c       8.134955459169152
_cell_angle_alpha    90.9395314512041
_cell_angle_beta     97.22151606041648
_cell_angle_gamma    91.96796560956827

_space_group_name_H-M_alt    "P 1"
_space_group_IT_number       1

loop_
  _space_group_symop_operation_xyz
  'x, y, z'

loop_
  _atom_site_type_symbol
  _atom_site_label
  _atom_site_symmetry_multiplicity
  _atom_site_fract_x
  _atom_site_fract_y
  _atom_site_fract_z
  _atom_site_occupancy
  Sb  Sb1       1.0  0.3434177311428357  0.6612449998938246  0.3318515747960191  1.0000
  Sb  Sb2       1.0  0.9397135733888717  0.923173518414842  0.32575162447756156  1.0000
  H   H1        1.0  0.840042398776859  0.41794092622876633  0.05773950694128871  1.0000
  H   H2        1.0  0.46541811199858785  0.8995662269171589  0.7925357170170173  1.0000
  O   O1        1.0  0.6270243914914317  0.6026607778039761  0.8192526110215113  1.0000
  O   O2        1.0  0.6139302937081084  0.34351679019164294  0.6581567915854976  1.0000
  O   O3        1.0  0.18815490405540913  0.7620451753027737  0.08464148387429304  1.0000
  O   O4        1.0  0.1318028597452212  0.9325799664366059  0.08093208901118487  1.0000
  F   F1        1.0  0.5935260360129178  0.9669693640898913  0.6325650248909369  1.0000
  F   F2        1.0  0.08831287138309563  0.9198669497563969  0.5270281081611756  1.0000
  F   F3        1.0  0.9963464628817746  0.8804095626837807  0.6883063158966252  1.0000
  F   F4        1.0  0.0691467048600316  0.8425609166006325  0.1596645480603911  1.0000
  F   F5        1.0  0.05922303639817983  0.17383140849415213  0.12314547435380518  1.0000
  F   F6        1.0  0.17190503561869264  0.7743828355451114  0.14566188254684675  1.0000
  F   F7        1.0  0.4629078123252839  0.45802894720691256  0.40428737954061944  1.0000
  F   F8        1.0  0.9500945187173784  0.6640814286565728  0.9250624830892775  1.0000
  F   F9        1.0  0.9650776371272514  0.5091828314616578  0.7757937153510284  1.0000
  F   F10       1.0  0.6503326661768369  0.3623567765462212  0.4219797035329975  1.0000
  F   F11       1.0  0.0796695494937012  0.8694549284118693  0.0073825157887768  1.0000
  F   F12       1.0  0.21134488023380982  0.7814242667518556  0.22406864224467427  1.0000
data_image141
_chemical_formula_structural       Sb2H2O4F12
_chemical_formula_sum              "Sb2 H2 O4 F12"
_cell_length_a       5.174112999999999
_cell_length_b       7.3015345668964695
_cell_length_c       8.134955459169152
_cell_angle_alpha    90.9395314512041
_cell_angle_beta     97.22151606041648
_cell_angle_gamma    91.96796560956827

_space_group_name_H-M_alt    "P 1"
_space_group_IT_number       1

loop_
  _space_group_symop_operation_xyz
  'x, y, z'

loop_
  _atom_site_type_symbol
  _atom_site_label
  _atom_site_symmetry_multiplicity
  _atom_site_fract_x
  _atom_site_fract_y
  _atom_site_fract_z
  _atom_site_occupancy
  Sb  Sb1       1.0  0.8252872955345083  0.9261755171901314  0.5007583531842101  1.0000
  Sb  Sb2       1.0  0.7400341210886836  0.19937499385559931  0.33977147133555263  1.0000
  H   H1        1.0  0.8872072172816843  0.06394946599334617  0.8262075076345354  1.0000
  H   H2        1.0  0.21047839289531112  0.6669143782660285  0.9634994838852435  1.0000
  O   O1        1.0  0.6745243409532122  0.5697623076848686  0.6524778485763818  1.0000
  O   O2        1.0  0.422974546905607  0.8704168217955157  0.3940914672566578  1.0000
  O   O3        1.0  0.8664297440554947  0.9209885995951481  0.01260031781566795  1.0000
  O   O4        1.0  0.9624641021655407  0.09533981193089858  0.8176546832546592  1.0000
  F   F1        1.0  0.6616991418413818  0.08370343060232699  0.8695302782580256  1.0000
  F   F2        1.0  0.2948583474012594  0.4855709977564402  0.26753123095841147  1.0000
  F   F3        1.0  0.8082141427294118  0.37197194664622657  0.4402191144981771  1.0000
  F   F4        1.0  0.07170500967185944  0.23166614209185354  0.981442560965661  1.0000
  F   F5        1.0  0.7055975596886128  0.5688890354358591  0.7679538865049835  1.0000
  F   F6        1.0  0.042149996384978294  0.6698366287455428  0.04706317180534825  1.0000
  F   F7        1.0  0.883299736189656  0.1032980991731165  0.9374655023857486  1.0000
  F   F8        1.0  0.33933573914691806  0.6667754922837048  0.0007850915135350078  1.0000
  F   F9        1.0  0.24570206041971687  0.07564419467234984  0.5759304201346822  1.0000
  F   F10       1.0  0.7361529657500796  0.17958377560717054  0.5207815958128776  1.0000
  F   F11       1.0  0.5823174230972654  0.6725734532519709  0.28071834552974906  1.0000
  F   F12       1.0  0.7692596647175378  0.17168203904293478  0.21318388491636142  1.0000
data_image142
_chemical_formula_structural       Sb2H2O4F12
_chemical_formula_sum              "Sb2 H2 O4 F12"
_cell_length_a       5.174112999999999
_cell_length_b       7.3015345668964695
_cell_length_c       8.134955459169152
_cell_angle_alpha    90.9395314512041
_cell_angle_beta     97.22151606041648
_cell_angle_gamma    91.96796560956827

_space_group_name_H-M_alt    "P 1"
_space_group_IT_number       1

loop_
  _space_group_symop_operation_xyz
  'x, y, z'

loop_
  _atom_site_type_symbol
  _atom_site_label
  _atom_site_symmetry_multiplicity
  _atom_site_fract_x
  _atom_site_fract_y
  _atom_site_fract_z
  _atom_site_occupancy
  Sb  Sb1       1.0  0.287488241243409  0.8339039641432464  0.04279191148816608  1.0000
  Sb  Sb2       1.0  0.8764806447143201  0.29769933078205213  0.142209737066878  1.0000
  H   H1        1.0  0.42033083958085626  0.04572815325809643  0.7287458432838321  1.0000
  H   H2        1.0  0.16753229382447898  0.13387871183658717  0.9057612645556219  1.0000
  O   O1        1.0  0.9074571882374585  0.710680915392004  0.09475690987892449  1.0000
  O   O2        1.0  0.6406745720014442  0.11909292603377253  0.8445298017468303  1.0000
  O   O3        1.0  0.4635225285310298  0.3002898743725382  0.2984199621132575  1.0000
  O   O4        1.0  0.11149870083318092  0.42914345231838524  0.7729975733091123  1.0000
  F   F1        1.0  0.9061302421614528  0.6798603956121951  0.679849176784046  1.0000
  F   F2        1.0  0.5369424496657302  0.7638936118455604  0.27399478494771756  1.0000
  F   F3        1.0  0.2701468071900308  0.33172476032632403  0.4259831671224674  1.0000
  F   F4        1.0  0.30112693057162687  0.4220617215614766  0.2883268613368273  1.0000
  F   F5        1.0  0.5929753393866122  0.051945590414106846  0.47585114228422754  1.0000
  F   F6        1.0  0.7747731986455619  0.4181710185657721  0.33136967913014814  1.0000
  F   F7        1.0  0.6218687032815069  0.35801000893116  0.36541454496909864  1.0000
  F   F8        1.0  0.1411308920942247  0.13142824554233812  0.9892244121292606  1.0000
  F   F9        1.0  0.7474052889592713  0.17705124279018492  0.6744758933200501  1.0000
  F   F10       1.0  0.6523347820038907  0.16700230486458167  0.4469779029896017  1.0000
  F   F11       1.0  0.14180580231186468  0.1501148022362031  0.5887664876354393  1.0000
  F   F12       1.0  0.021295714752341155  0.49407044507097453  0.005880202574189752  1.0000
data_image143
_chemical_formula_structural       Sb2H2O4F12
_chemical_formula_sum              "Sb2 H2 O4 F12"
_cell_length_a       5.174112999999999
_cell_length_b       7.3015345668964695
_cell_length_c       8.134955459169152
_cell_angle_alpha    90.9395314512041
_cell_angle_beta     97.22151606041648
_cell_angle_gamma    91.96796560956827

_space_group_name_H-M_alt    "P 1"
_space_group_IT_number       1

loop_
  _space_group_symop_operation_xyz
  'x, y, z'

loop_
  _atom_site_type_symbol
  _atom_site_label
  _atom_site_symmetry_multiplicity
  _atom_site_fract_x
  _atom_site_fract_y
  _atom_site_fract_z
  _atom_site_occupancy
  Sb  Sb1       1.0  0.4611499550228473  0.9030482634552754  0.6547919836011715  1.0000
  Sb  Sb2       1.0  0.7534957406460308  0.41922609228640795  0.4765917871700367  1.0000
  H   H1        1.0  0.03509344672784209  0.9925635404069908  0.6450444015208632  1.0000
  H   H2        1.0  0.8445747997611761  0.20313728990004165  0.047186896845232695  1.0000
  O   O1        1.0  0.9107251317473128  0.2000661131751258  0.6813153732800856  1.0000
  O   O2        1.0  0.317073998041451  0.3900455915136263  0.667459899559617  1.0000
  O   O3        1.0  0.7176434077555314  0.7251870660693385  0.23881043071378372  1.0000
  O   O4        1.0  0.03662809781963006  0.660769785696175  0.024643632175866514  1.0000
  F   F1        1.0  0.15816327277570963  0.7326501454226673  0.7479579957434908  1.0000
  F   F2        1.0  0.6106742159481655  0.09471428001415916  0.3077554313640576  1.0000
  F   F3        1.0  0.7041476027352473  0.38256596678547794  0.03644795109721599  1.0000
  F   F4        1.0  0.07144854799844325  0.755333291599527  0.42044343112502247  1.0000
  F   F5        1.0  0.7152252212399617  0.6218364500091411  0.46511304669547826  1.0000
  F   F6        1.0  0.403837128309533  0.1983777088462375  0.11975360319775064  1.0000
  F   F7        1.0  0.7718841675668955  0.17424382650642656  0.32825595563917886  1.0000
  F   F8        1.0  0.5109561150893569  0.9228887799436052  0.849237346672453  1.0000
  F   F9        1.0  0.7635867751814658  0.7644707442377694  0.6938460577221122  1.0000
  F   F10       1.0  0.5009088527294807  0.9990660884941462  0.12338084517978132  1.0000
  F   F11       1.0  0.47408064814226236  0.5575693548307754  0.29570241698093014  1.0000
  F   F12       1.0  0.3743683850261732  0.40805180952884257  0.994636922259815  1.0000
data_image144
_chemical_formula_structural       Sb2H2O4F12
_chemical_formula_sum              "Sb2 H2 O4 F12"
_cell_length_a       5.174112999999999
_cell_length_b       7.3015345668964695
_cell_length_c       8.134955459169152
_cell_angle_alpha    90.9395314512041
_cell_angle_beta     97.22151606041648
_cell_angle_gamma    91.96796560956827

_space_group_name_H-M_alt    "P 1"
_space_group_IT_number       1

loop_
  _space_group_symop_operation_xyz
  'x, y, z'

loop_
  _atom_site_type_symbol
  _atom_site_label
  _atom_site_symmetry_multiplicity
  _atom_site_fract_x
  _atom_site_fract_y
  _atom_site_fract_z
  _atom_site_occupancy
  Sb  Sb1       1.0  0.529001978749875  0.9294406386470655  0.47588018883834593  1.0000
  Sb  Sb2       1.0  0.04737267523887567  0.8397863272402901  0.387960275853402  1.0000
  H   H1        1.0  0.26108651410322636  0.9542312093253713  0.08413785451557487  1.0000
  H   H2        1.0  0.5632915876340121  0.6609400889610697  0.9486370630329475  1.0000
  O   O1        1.0  0.12570714758476242  0.39988902711775154  0.9211175796226598  1.0000
  O   O2        1.0  0.9469189798401203  0.3336602080380544  0.9890534623991698  1.0000
  O   O3        1.0  0.3080939823994413  0.7663079219637439  0.03588147737173131  1.0000
  O   O4        1.0  0.4611677580687683  0.4929515784024261  0.8329301420017146  1.0000
  F   F1        1.0  0.9838770106434822  0.7169715850614011  0.5081827432150021  1.0000
  F   F2        1.0  0.8305181452487886  0.06046620401320979  0.5630590981454588  1.0000
  F   F3        1.0  0.6883601852168795  0.2540674412739463  0.8353748647678003  1.0000
  F   F4        1.0  0.045013866387307644  0.5765601133462042  0.4039261676662136  1.0000
  F   F5        1.0  0.5408762362785637  0.6217851529945619  0.12861574362614192  1.0000
  F   F6        1.0  0.9808171309996396  0.20376411362667568  0.8794196380040376  1.0000
  F   F7        1.0  0.8660470121540129  0.15968245337717235  0.8307260973379016  1.0000
  F   F8        1.0  0.24199932673946023  0.45589706788086914  0.5839821388362907  1.0000
  F   F9        1.0  0.742343997975695  0.2798785727645736  0.5772433872043621  1.0000
  F   F10       1.0  0.9374450674513355  0.9622262965713162  0.2586919143504929  1.0000
  F   F11       1.0  0.44663673397008097  0.31952624686528  0.9187643065015436  1.0000
  F   F12       1.0  0.8254574624006636  0.6781310902442783  0.9606303641921841  1.0000
data_image145
_chemical_formula_structural       Sb2H2O4F12
_chemical_formula_sum              "Sb2 H2 O4 F12"
_cell_length_a       5.174112999999999
_cell_length_b       7.3015345668964695
_cell_length_c       8.134955459169152
_cell_angle_alpha    90.9395314512041
_cell_angle_beta     97.22151606041648
_cell_angle_gamma    91.96796560956827

_space_group_name_H-M_alt    "P 1"
_space_group_IT_number       1

loop_
  _space_group_symop_operation_xyz
  'x, y, z'

loop_
  _atom_site_type_symbol
  _atom_site_label
  _atom_site_symmetry_multiplicity
  _atom_site_fract_x
  _atom_site_fract_y
  _atom_site_fract_z
  _atom_site_occupancy
  Sb  Sb1       1.0  0.45580292865633965  0.8807164209283656  0.9374256447481457  1.0000
  Sb  Sb2       1.0  0.5389385771122761  0.9891444841341581  0.8281063497270225  1.0000
  H   H1        1.0  0.7304621152579784  0.44837069433924626  0.7222535025794059  1.0000
  H   H2        1.0  0.33053983212448657  0.3426791634847177  0.37643364630639553  1.0000
  O   O1        1.0  0.9409821180161089  0.7863155865925364  0.19647148216608912  1.0000
  O   O2        1.0  0.8337203557312023  0.2181675264146179  0.5594940354349092  1.0000
  O   O3        1.0  0.8942136670229957  0.33136313140857965  0.4073777696903562  1.0000
  O   O4        1.0  0.025836235436145216  0.2140453739266377  0.9658678542473353  1.0000
  F   F1        1.0  0.4440215020440519  0.10695976228453219  0.4928162000142038  1.0000
  F   F2        1.0  0.5120093199693656  0.2766159898019396  0.4790220817667432  1.0000
  F   F3        1.0  0.918490971387655  0.453227699661511  0.5981082024009083  1.0000
  F   F4        1.0  0.18188140745041892  0.1741444872750435  0.21001807009452023  1.0000
  F   F5        1.0  0.20099552196916193  0.3650583521812223  0.4393157385638915  1.0000
  F   F6        1.0  0.9809073647484183  0.9040687103406526  0.5520832382026128  1.0000
  F   F7        1.0  0.31469393020961434  0.16474704080610536  0.8396595198428258  1.0000
  F   F8        1.0  0.9394861562177539  0.09242005433043232  0.5912623677286319  1.0000
  F   F9        1.0  0.5743717080476927  0.28010292163526174  0.46572282986016944  1.0000
  F   F10       1.0  0.4076300736051053  0.9782762214308605  0.83372862500255  1.0000
  F   F11       1.0  0.29337351352296537  0.230049766600132  0.8941167992015835  1.0000
  F   F12       1.0  0.09439193018624792  0.6175592107465491  0.3600816047983244  1.0000
data_image146
_chemical_formula_structural       Sb2H2O4F12
_chemical_formula_sum              "Sb2 H2 O4 F12"
_cell_length_a       5.174112999999999
_cell_length_b       7.3015345668964695
_cell_length_c       8.134955459169152
_cell_angle_alpha    90.9395314512041
_cell_angle_beta     97.22151606041648
_cell_angle_gamma    91.96796560956827

_space_group_name_H-M_alt    "P 1"
_space_group_IT_number       1

loop_
  _space_group_symop_operation_xyz
  'x, y, z'

loop_
  _atom_site_type_symbol
  _atom_site_label
  _atom_site_symmetry_multiplicity
  _atom_site_fract_x
  _atom_site_fract_y
  _atom_site_fract_z
  _atom_site_occupancy
  Sb  Sb1       1.0  0.6912836436531506  0.3714637076627696  0.2176816708233673  1.0000
  Sb  Sb2       1.0  0.40267997249611653  0.3248785078176297  0.33431310129526537  1.0000
  H   H1        1.0  0.8337982504162937  0.3933960402246157  0.3758521934505552  1.0000
  H   H2        1.0  0.40662285406142473  0.5807788140707544  0.4630717495456338  1.0000
  O   O1        1.0  0.4471732625970617  0.8483960854355246  0.909754756023176  1.0000
  O   O2        1.0  0.9419834365835413  0.4068336220807396  0.10434792144224048  1.0000
  O   O3        1.0  0.3837539029773325  0.49757675046566874  0.5965015964175109  1.0000
  O   O4        1.0  0.7752935019962024  0.26244775601662695  0.23594388470519334  1.0000
  F   F1        1.0  0.8556973375380039  0.7899923382792622  0.009292857022956014  1.0000
  F   F2        1.0  0.6511220658576349  0.40253837007912807  0.6036967498657759  1.0000
  F   F3        1.0  0.17876691092533292  0.6799831708194688  0.016077438711363357  1.0000
  F   F4        1.0  0.2486712980316952  0.015233224155963399  0.11526947183301672  1.0000
  F   F5        1.0  0.5425320622744039  0.8083048739354126  0.7572755951550789  1.0000
  F   F6        1.0  0.47728851111605763  0.795957684982568  0.9537748105358332  1.0000
  F   F7        1.0  0.22405759058892727  0.3289399981731549  0.31835614576993976  1.0000
  F   F8        1.0  0.7724385298788548  0.7630894773537875  0.03876842322642915  1.0000
  F   F9        1.0  0.7681008394501987  0.3860051974770613  0.3465168862021528  1.0000
  F   F10       1.0  0.5924215534469113  0.6700469699280802  0.12837050529196858  1.0000
  F   F11       1.0  0.8136741489142878  0.372683264198713  0.6050813855326851  1.0000
  F   F12       1.0  0.05557705499086296  0.05690382223110646  0.7981172599247657  1.0000
data_image147
_chemical_formula_structural       Sb2H2O4F12
_chemical_formula_sum              "Sb2 H2 O4 F12"
_cell_length_a       5.174112999999999
_cell_length_b       7.3015345668964695
_cell_length_c       8.134955459169152
_cell_angle_alpha    90.9395314512041
_cell_angle_beta     97.22151606041648
_cell_angle_gamma    91.96796560956827

_space_group_name_H-M_alt    "P 1"
_space_group_IT_number       1

loop_
  _space_group_symop_operation_xyz
  'x, y, z'

loop_
  _atom_site_type_symbol
  _atom_site_label
  _atom_site_symmetry_multiplicity
  _atom_site_fract_x
  _atom_site_fract_y
  _atom_site_fract_z
  _atom_site_occupancy
  Sb  Sb1       1.0  0.07962781947571784  0.4187803322056425  0.28666648519720184  1.0000
  Sb  Sb2       1.0  0.10654916337807663  0.7826616235543042  0.7917322434368543  1.0000
  H   H1        1.0  0.33311085507739335  0.816281946208619  0.9881201989483088  1.0000
  H   H2        1.0  0.9529870303813368  0.6071861481959786  0.08609197265468538  1.0000
  O   O1        1.0  0.41912495443830267  0.15524945239303634  0.4464241990353912  1.0000
  O   O2        1.0  0.7104900550039019  0.28207138495054096  0.9700862215831876  1.0000
  O   O3        1.0  0.21851250133477151  0.01582266902551055  0.02693009455106221  1.0000
  O   O4        1.0  0.05112624976027291  0.5347864330396987  0.9853864510077983  1.0000
  F   F1        1.0  0.33901001419872046  0.6326830349862576  0.34821833786554635  1.0000
  F   F2        1.0  0.9007361714247963  0.39080648266826756  0.16609137898194604  1.0000
  F   F3        1.0  0.5731340733109391  0.8154720267120865  0.3229103182166  1.0000
  F   F4        1.0  0.4663059819722548  0.55408426959184  0.22364917810773477  1.0000
  F   F5        1.0  0.37374707008711994  0.6834962774300948  0.2816251994227059  1.0000
  F   F6        1.0  0.3469105730764568  0.908271704276558  0.43109626206569374  1.0000
  F   F7        1.0  0.7268333621323109  0.0130909169674851  0.467733750178013  1.0000
  F   F8        1.0  0.03171250456944108  0.0015969245141604915  0.6370583023235667  1.0000
  F   F9        1.0  0.29482392843056004  0.8152760525990743  0.8764378329506144  1.0000
  F   F10       1.0  0.6314959001610987  0.83049902447965  0.6155072277178988  1.0000
  F   F11       1.0  0.9537102634567418  0.128382021561265  0.42941860979772173  1.0000
  F   F12       1.0  0.48707838045811513  0.5486692753620446  0.9615785747300833  1.0000
data_image148
_chemical_formula_structural       Sb2H2O4F12
_chemical_formula_sum              "Sb2 H2 O4 F12"
_cell_length_a       5.174112999999999
_cell_length_b       7.3015345668964695
_cell_length_c       8.134955459169152
_cell_angle_alpha    90.9395314512041
_cell_angle_beta     97.22151606041648
_cell_angle_gamma    91.96796560956827

_space_group_name_H-M_alt    "P 1"
_space_group_IT_number       1

loop_
  _space_group_symop_operation_xyz
  'x, y, z'

loop_
  _atom_site_type_symbol
  _atom_site_label
  _atom_site_symmetry_multiplicity
  _atom_site_fract_x
  _atom_site_fract_y
  _atom_site_fract_z
  _atom_site_occupancy
  Sb  Sb1       1.0  0.02995953315985389  0.6793800906743854  0.3497345314026461  1.0000
  Sb  Sb2       1.0  0.032714600340113975  0.9443250535405241  0.807430291257333  1.0000
  H   H1        1.0  0.3274168644566089  0.7489160282384546  0.7396612298907712  1.0000
  H   H2        1.0  0.7594763634260744  0.4062686336656043  0.5647622575052083  1.0000
  O   O1        1.0  0.6133251059800386  0.745023012132151  0.9423695760779083  1.0000
  O   O2        1.0  0.8834963664703537  0.45669276267290115  0.47329247812740505  1.0000
  O   O3        1.0  0.3423928216798231  0.19056579319294542  0.8081228207156528  1.0000
  O   O4        1.0  0.14963307391735725  0.3752918739337474  0.5011633839458227  1.0000
  F   F1        1.0  0.6603734027594328  0.1399904079735279  0.37716023065149784  1.0000
  F   F2        1.0  0.2766411463926488  0.8129390275571495  0.9315495318733156  1.0000
  F   F3        1.0  0.45519041930674575  0.689907089312328  0.31533091297751525  1.0000
  F   F4        1.0  0.6195520822075196  0.06062584479514044  0.5001749580260366  1.0000
  F   F5        1.0  0.21367097983602434  0.5877679300610907  0.937690479651792  1.0000
  F   F6        1.0  0.8474954345729202  0.4270270849810913  0.2135195933515206  1.0000
  F   F7        1.0  0.4372745861764997  0.13195755030028522  0.16245620876725297  1.0000
  F   F8        1.0  0.4662202005274594  0.5820727239915868  0.7437348944367841  1.0000
  F   F9        1.0  0.42861538790748455  0.6875718588271411  0.6662259790173266  1.0000
  F   F10       1.0  0.6208870193222538  0.17308302070887294  0.7105271114269271  1.0000
  F   F11       1.0  0.6293692912877304  0.5137547337508295  0.9782306534107192  1.0000
  F   F12       1.0  0.20195122296718182  0.1695112141314894  0.6845816657878458  1.0000
data_image149
_chemical_formula_structural       Sb2H2O4F12
_chemical_formula_sum              "Sb2 H2 O4 F12"
_cell_length_a       5.174112999999999
_cell_length_b       7.3015345668964695
_cell_length_c       8.134955459169152
_cell_angle_alpha    90.9395314512041
_cell_angle_beta     97.22151606041648
_cell_angle_gamma    91.96796560956827

_space_group_name_H-M_alt    "P 1"
_space_group_IT_number       1

loop_
  _space_group_symop_operation_xyz
  'x, y, z'

loop_
  _atom_site_type_symbol
  _atom_site_label
  _atom_site_symmetry_multiplicity
  _atom_site_fract_x
  _atom_site_fract_y
  _atom_site_fract_z
  _atom_site_occupancy
  Sb  Sb1       1.0  0.9835252791526727  0.2811049817537423  0.5394761067036598  1.0000
  Sb  Sb2       1.0  0.13585758066619746  0.6527166211453732  0.020753926219185814  1.0000
  H   H1        1.0  0.4607690771808848  0.635808391507453  0.013359148637391627  1.0000
  H   H2        1.0  0.2980683639179915  0.8403738479428284  0.6634099598159082  1.0000
  O   O1        1.0  0.1118089486262761  0.04919649922521785  0.7250846730312333  1.0000
  O   O2        1.0  0.8174169064150192  0.8057104470208287  0.2770493314601481  1.0000
  O   O3        1.0  0.3218780546449125  0.28282126848353073  0.5055916632700246  1.0000
  O   O4        1.0  0.19192323691095226  0.6051541694032494  0.3573210604954511  1.0000
  F   F1        1.0  0.4945982061326504  0.5448717947583646  0.04624421498738229  1.0000
  F   F2        1.0  0.1532241991662886  0.40568061005615164  0.22896081261569634  1.0000
  F   F3        1.0  0.18559528118930757  0.9360942275525304  0.6993945596768754  1.0000
  F   F4        1.0  0.5756807850557379  0.7283587479614653  0.0830969148373697  1.0000
  F   F5        1.0  0.44604665134102106  0.5519873737357557  0.23462272257893346  1.0000
  F   F6        1.0  0.7842598094139248  0.8853526969905943  0.4306661707814783  1.0000
  F   F7        1.0  0.40250364888925105  0.8545623272802914  0.5673932102508843  1.0000
  F   F8        1.0  0.18593958066776395  0.373196522865328  0.6444406808004715  1.0000
  F   F9        1.0  0.6734670622608974  0.04119223613815848  0.43811620245105587  1.0000
  F   F10       1.0  0.8350075676571578  0.6660600820905529  0.6913949147856329  1.0000
  F   F11       1.0  0.25807758463633945  0.2680792649334762  0.40426311347982846  1.0000
  F   F12       1.0  0.6330940361658577  0.3498387604486197  0.7896119246724993  1.0000
data_image150
_chemical_formula_structural       Sb2H2O4F12
_chemical_formula_sum              "Sb2 H2 O4 F12"
_cell_length_a       5.174112999999999
_cell_length_b       7.3015345668964695
_cell_length_c       8.134955459169152
_cell_angle_alpha    90.9395314512041
_cell_angle_beta     97.22151606041648
_cell_angle_gamma    91.96796560956827

_space_group_name_H-M_alt    "P 1"
_space_group_IT_number       1

loop_
  _space_group_symop_operation_xyz
  'x, y, z'

loop_
  _atom_site_type_symbol
  _atom_site_label
  _atom_site_symmetry_multiplicity
  _atom_site_fract_x
  _atom_site_fract_y
  _atom_site_fract_z
  _atom_site_occupancy
  Sb  Sb1       1.0  0.4609457098704297  0.8155113837492536  0.9107622193350835  1.0000
  Sb  Sb2       1.0  0.018990682568983175  0.04939309772453271  0.5807130594621412  1.0000
  H   H1        1.0  0.09617500088643283  0.3844665170945518  0.5570963880745694  1.0000
  H   H2        1.0  0.0006654257886111736  0.8256637166741712  0.2653159993933514  1.0000
  O   O1        1.0  0.1438678991398774  0.6133236325986218  0.08912899147253484  1.0000
  O   O2        1.0  0.3319095399347134  0.061311463825404644  0.5143509074114263  1.0000
  O   O3        1.0  0.0884035580093041  0.4090653160819784  0.81238758386462  1.0000
  O   O4        1.0  0.985516632485087  0.6567233085806947  0.5204444851260632  1.0000
  F   F1        1.0  0.9376483466476202  0.4120785784907639  0.28213677485473454  1.0000
  F   F2        1.0  0.08589750871033175  0.859064844524255  0.2696561202465091  1.0000
  F   F3        1.0  0.6429746454232372  0.6976362126370077  0.011857955738378223  1.0000
  F   F4        1.0  0.7241058824001811  0.2388005468819756  0.1173451674694661  1.0000
  F   F5        1.0  0.5851911373902112  0.6924355282098986  0.9338050679361913  1.0000
  F   F6        1.0  0.042966724606230855  0.6574123564641923  0.9096110373502597  1.0000
  F   F7        1.0  0.019480584072880447  0.9068314952892251  0.21686289977515116  1.0000
  F   F8        1.0  0.28969486663118005  0.49645049541140907  0.856053236668231  1.0000
  F   F9        1.0  0.19914361209521303  0.3818756276596105  0.6052730073279236  1.0000
  F   F10       1.0  0.26179472589865327  0.591801131318789  0.912725226546172  1.0000
  F   F11       1.0  0.7527355454585631  0.5382903456920758  0.3354236570739886  1.0000
  F   F12       1.0  0.9876060593887814  0.9095737219322473  0.22549233649624512  1.0000
data_image151
_chemical_formula_structural       Sb2H2O4F12
_chemical_formula_sum              "Sb2 H2 O4 F12"
_cell_length_a       5.174112999999999
_cell_length_b       7.3015345668964695
_cell_length_c       8.134955459169152
_cell_angle_alpha    90.9395314512041
_cell_angle_beta     97.22151606041648
_cell_angle_gamma    91.96796560956827

_space_group_name_H-M_alt    "P 1"
_space_group_IT_number       1

loop_
  _space_group_symop_operation_xyz
  'x, y, z'

loop_
  _atom_site_type_symbol
  _atom_site_label
  _atom_site_symmetry_multiplicity
  _atom_site_fract_x
  _atom_site_fract_y
  _atom_site_fract_z
  _atom_site_occupancy
  Sb  Sb1       1.0  0.6025938061648048  0.1910324547206983  0.381410098849301  1.0000
  Sb  Sb2       1.0  0.791570216868422  0.3354740134673193  0.8494201892171986  1.0000
  H   H1        1.0  0.16962625284213573  0.5854398676456185  0.375687264604494  1.0000
  H   H2        1.0  0.914899970870465  0.745660253414826  0.3534210085636005  1.0000
  O   O1        1.0  0.03375856316415593  0.11168652391643263  0.20290657703299075  1.0000
  O   O2        1.0  0.4016095003753435  0.06750950176501647  0.5220814043423161  1.0000
  O   O3        1.0  0.38876740995328873  0.35810500697698444  0.6801490632642526  1.0000
  O   O4        1.0  0.9012449536312488  0.26288587908493355  0.5166511704446748  1.0000
  F   F1        1.0  0.49060031678527594  0.12265488994307816  0.21165556274354458  1.0000
  F   F2        1.0  0.7951502272117068  0.025397500430699438  0.6599923729372676  1.0000
  F   F3        1.0  0.5587504920549691  0.12043215912854066  0.5914149617019575  1.0000
  F   F4        1.0  0.04419357591541484  0.6627210114820627  0.6780276084027719  1.0000
  F   F5        1.0  0.3988981528673321  0.08126561110839248  0.678254076075973  1.0000
  F   F6        1.0  0.4239731337875128  0.6165532512241043  0.012554466258734465  1.0000
  F   F7        1.0  0.022493930184282362  0.9399851527268765  0.6228347443393432  1.0000
  F   F8        1.0  0.26898260321468115  0.9208174611267168  0.21268781871185638  1.0000
  F   F9        1.0  0.45160301442228956  0.8224654676305363  0.7705304988776334  1.0000
  F   F10       1.0  0.09976326924515888  0.900300760549726  0.981878575112205  1.0000
  F   F11       1.0  0.9204887525411323  0.92123091754911  0.2811390835122438  1.0000
  F   F12       1.0  0.9280386554237339  0.8648260071640834  0.23722772725159302  1.0000
data_image152
_chemical_formula_structural       Sb2H2O4F12
_chemical_formula_sum              "Sb2 H2 O4 F12"
_cell_length_a       5.174112999999999
_cell_length_b       7.3015345668964695
_cell_length_c       8.134955459169152
_cell_angle_alpha    90.9395314512041
_cell_angle_beta     97.22151606041648
_cell_angle_gamma    91.96796560956827

_space_group_name_H-M_alt    "P 1"
_space_group_IT_number       1

loop_
  _space_group_symop_operation_xyz
  'x, y, z'

loop_
  _atom_site_type_symbol
  _atom_site_label
  _atom_site_symmetry_multiplicity
  _atom_site_fract_x
  _atom_site_fract_y
  _atom_site_fract_z
  _atom_site_occupancy
  Sb  Sb1       1.0  0.09648615328478627  0.08437210617194069  0.4946875058740261  1.0000
  Sb  Sb2       1.0  0.923893109546043  0.9250646478903946  0.8845798780967016  1.0000
  H   H1        1.0  0.472975158423651  0.6026130907084735  0.448659275774844  1.0000
  H   H2        1.0  0.09140762779861689  0.8636988583457423  0.07811472180765122  1.0000
  O   O1        1.0  0.8320993899833411  0.9304833083588164  0.12281711003743112  1.0000
  O   O2        1.0  0.24644730880390853  0.9468992265756242  0.14281298127025366  1.0000
  O   O3        1.0  0.7403247642796487  0.43400299921631813  0.06770284986123443  1.0000
  O   O4        1.0  0.9150854281251668  0.0898265739378985  0.44074618094600737  1.0000
  F   F1        1.0  0.34849410597234964  0.9944932095240802  0.47629878646694124  1.0000
  F   F2        1.0  0.43076710217792424  0.20506207027938217  0.7632068744569551  1.0000
  F   F3        1.0  0.46750840201275423  0.47749458593898453  0.8730901932576671  1.0000
  F   F4        1.0  0.7751182770589367  0.8747065407515038  0.6411675892886706  1.0000
  F   F5        1.0  0.715382412308827  0.06772887357510626  0.7523427098349202  1.0000
  F   F6        1.0  0.017549234675243497  0.009043604542966932  0.3687302543548867  1.0000
  F   F7        1.0  0.9830730825196952  0.7110901385021862  0.1506426710257074  1.0000
  F   F8        1.0  0.19655001955106854  0.7971226858062437  0.035902580711990595  1.0000
  F   F9        1.0  0.1008433913521003  0.12044788323692046  0.294205844955286  1.0000
  F   F10       1.0  0.6510613454156555  0.8511451709782705  0.18132336775306612  1.0000
  F   F11       1.0  0.2984790493210312  0.2702625988458749  0.19049317071039695  1.0000
  F   F12       1.0  0.6501243657403393  0.7548002034891397  0.028459014371037483  1.0000
data_image153
_chemical_formula_structural       Sb2H2O4F12
_chemical_formula_sum              "Sb2 H2 O4 F12"
_cell_length_a       5.174112999999999
_cell_length_b       7.3015345668964695
_cell_length_c       8.134955459169152
_cell_angle_alpha    90.9395314512041
_cell_angle_beta     97.22151606041648
_cell_angle_gamma    91.96796560956827

_space_group_name_H-M_alt    "P 1"
_space_group_IT_number       1

loop_
  _space_group_symop_operation_xyz
  'x, y, z'

loop_
  _atom_site_type_symbol
  _atom_site_label
  _atom_site_symmetry_multiplicity
  _atom_site_fract_x
  _atom_site_fract_y
  _atom_site_fract_z
  _atom_site_occupancy
  Sb  Sb1       1.0  0.5129454381822143  0.9670497940242058  0.8788047687994549  1.0000
  Sb  Sb2       1.0  0.12202119594439864  0.5539989197568502  0.789369623787934  1.0000
  H   H1        1.0  0.9149530541035347  0.7021478887872945  0.6587599635822698  1.0000
  H   H2        1.0  0.6449780876282603  0.12501379604509566  0.7607898748246953  1.0000
  O   O1        1.0  0.1583563371677883  0.7829059774521738  0.2506030994700268  1.0000
  O   O2        1.0  0.27272750274278224  0.16639220173237845  0.652778681484051  1.0000
  O   O3        1.0  0.43301446340046823  0.5899309201631695  0.8368556170607917  1.0000
  O   O4        1.0  0.7864485465252073  0.41341925694723614  0.020141708431765437  1.0000
  F   F1        1.0  0.9823651756159961  0.7321741292253137  0.09620368503965437  1.0000
  F   F2        1.0  0.025487086195425945  0.7037158818275202  0.575376276508905  1.0000
  F   F3        1.0  0.7292451351531781  0.6568748980207602  0.49769832714810036  1.0000
  F   F4        1.0  0.718732325010933  0.6929678600863554  0.3722676941542886  1.0000
  F   F5        1.0  0.024986737058497965  0.8452713622828014  0.8963268157676794  1.0000
  F   F6        1.0  0.11690021585673094  0.45799413172062486  0.5068271339405328  1.0000
  F   F7        1.0  0.8055766772013158  0.797969150255085  0.5646198833273957  1.0000
  F   F8        1.0  0.5073136547580361  0.4584826653590426  0.5947517832973972  1.0000
  F   F9        1.0  0.245270960018388  0.942559812188847  0.14039344468619674  1.0000
  F   F10       1.0  0.613554667099379  0.5151839607860893  0.19225470800301991  1.0000
  F   F11       1.0  0.3350721153692575  0.004171196153038181  0.3833311243215576  1.0000
  F   F12       1.0  0.29467014358669985  0.3845627228729427  0.9644772529718466  1.0000
data_image154
_chemical_formula_structural       Sb2H2O4F12
_chemical_formula_sum              "Sb2 H2 O4 F12"
_cell_length_a       5.174112999999999
_cell_length_b       7.3015345668964695
_cell_length_c       8.134955459169152
_cell_angle_alpha    90.9395314512041
_cell_angle_beta     97.22151606041648
_cell_angle_gamma    91.96796560956827

_space_group_name_H-M_alt    "P 1"
_space_group_IT_number       1

loop_
  _space_group_symop_operation_xyz
  'x, y, z'

loop_
  _atom_site_type_symbol
  _atom_site_label
  _atom_site_symmetry_multiplicity
  _atom_site_fract_x
  _atom_site_fract_y
  _atom_site_fract_z
  _atom_site_occupancy
  Sb  Sb1       1.0  0.6860828694188967  0.9322735746973194  0.8374595264831441  1.0000
  Sb  Sb2       1.0  0.9324024989691679  0.10043957390007563  0.6752137623552699  1.0000
  H   H1        1.0  0.5270829634391703  0.43099561314011225  0.7156088284682482  1.0000
  H   H2        1.0  0.8733166363090277  0.8371767270982673  0.8330659356433898  1.0000
  O   O1        1.0  0.09810805460438132  0.5872823531972244  0.6934627464506775  1.0000
  O   O2        1.0  0.5138456557760946  0.07342526264255866  0.27656326279975474  1.0000
  O   O3        1.0  0.6636322781560011  0.6892649936489761  0.08471641025971621  1.0000
  O   O4        1.0  0.601908788572473  0.4134084107063245  0.08839725225698203  1.0000
  F   F1        1.0  0.6443639164790511  0.1559085736516863  0.8212416601600125  1.0000
  F   F2        1.0  0.3891180332029762  0.3591663223633077  0.5766207133128773  1.0000
  F   F3        1.0  0.12986214314878453  0.6167053661156388  0.6044153950242617  1.0000
  F   F4        1.0  0.6613869995926507  0.906349533557659  0.966185617930023  1.0000
  F   F5        1.0  0.8708863579668105  0.47139075759332627  0.07998269295785576  1.0000
  F   F6        1.0  0.20033448841422796  0.12974282942013815  0.2611658170353621  1.0000
  F   F7        1.0  0.11831261339830235  0.36993207639898174  0.6860697779484326  1.0000
  F   F8        1.0  0.5798938325606287  0.38185418231296353  0.4539012126624584  1.0000
  F   F9        1.0  0.010052592100691982  0.524426775824395  0.2839563184243161  1.0000
  F   F10       1.0  0.31368323683273047  0.18902297932072543  0.428850376221817  1.0000
  F   F11       1.0  0.10618610066740075  0.2318062516860664  0.2280152578750858  1.0000
  F   F12       1.0  0.9624323397947592  0.28940389782655984  0.28786634624702856  1.0000
data_image155
_chemical_formula_structural       Sb2H2O4F12
_chemical_formula_sum              "Sb2 H2 O4 F12"
_cell_length_a       5.174112999999999
_cell_length_b       7.3015345668964695
_cell_length_c       8.134955459169152
_cell_angle_alpha    90.9395314512041
_cell_angle_beta     97.22151606041648
_cell_angle_gamma    91.96796560956827

_space_group_name_H-M_alt    "P 1"
_space_group_IT_number       1

loop_
  _space_group_symop_operation_xyz
  'x, y, z'

loop_
  _atom_site_type_symbol
  _atom_site_label
  _atom_site_symmetry_multiplicity
  _atom_site_fract_x
  _atom_site_fract_y
  _atom_site_fract_z
  _atom_site_occupancy
  Sb  Sb1       1.0  0.6314227706170641  0.5845367176953005  0.7621440846924088  1.0000
  Sb  Sb2       1.0  0.8618999110585719  0.014304542273748666  0.8078661940817256  1.0000
  H   H1        1.0  0.7690696832141839  0.31537008995655924  0.7339238788699731  1.0000
  H   H2        1.0  0.3055184104014188  0.9037072660430567  0.14162907528225332  1.0000
  O   O1        1.0  0.696149232215248  0.6812561362457927  0.3908546972088516  1.0000
  O   O2        1.0  0.09448945784242824  0.005354525812435895  0.6004328986164182  1.0000
  O   O3        1.0  0.5918272333219647  0.48406548786442727  0.47623594815377146  1.0000
  O   O4        1.0  0.5164501266481238  0.43191284241038375  0.4242658498696983  1.0000
  F   F1        1.0  0.008403087500482798  0.16834946419112384  0.9617324168793857  1.0000
  F   F2        1.0  0.9674557419639314  0.8649946406076197  0.6621592252340633  1.0000
  F   F3        1.0  0.05361214987351559  0.2816425182427338  0.12815704799140804  1.0000
  F   F4        1.0  0.31831032945774496  0.79851321951719  0.2921356675797142  1.0000
  F   F5        1.0  0.4861195929115638  0.16692089481512085  0.17069638925022446  1.0000
  F   F6        1.0  0.9127216804772615  0.93893759715138  0.6893451352370903  1.0000
  F   F7        1.0  0.8812548595597036  0.8856115154485451  0.18864695786032826  1.0000
  F   F8        1.0  0.3380766441114247  0.38756203206139617  0.909562690067105  1.0000
  F   F9        1.0  0.9442962997709401  0.9441731953411363  0.4952483746164944  1.0000
  F   F10       1.0  0.36593677231576294  0.5934685080428608  0.14003434425103478  1.0000
  F   F11       1.0  0.9777953532466199  0.3256290582648944  0.448367904900806  1.0000
  F   F12       1.0  0.12699679077240944  0.18690904008690268  0.9678498644498177  1.0000
data_image156
_chemical_formula_structural       Sb2H2O4F12
_chemical_formula_sum              "Sb2 H2 O4 F12"
_cell_length_a       5.174112999999999
_cell_length_b       7.3015345668964695
_cell_length_c       8.134955459169152
_cell_angle_alpha    90.9395314512041
_cell_angle_beta     97.22151606041648
_cell_angle_gamma    91.96796560956827

_space_group_name_H-M_alt    "P 1"
_space_group_IT_number       1

loop_
  _space_group_symop_operation_xyz
  'x, y, z'

loop_
  _atom_site_type_symbol
  _atom_site_label
  _atom_site_symmetry_multiplicity
  _atom_site_fract_x
  _atom_site_fract_y
  _atom_site_fract_z
  _atom_site_occupancy
  Sb  Sb1       1.0  0.016667253628838807  0.8350174090446671  0.7261350519111147  1.0000
  Sb  Sb2       1.0  0.41841774088061356  0.5382597610296216  0.7028365433507133  1.0000
  H   H1        1.0  0.21907216572435573  0.35382234914868604  0.9013385112630203  1.0000
  H   H2        1.0  0.0631396071985364  0.7604371611378156  0.6698503784136847  1.0000
  O   O1        1.0  0.7960233563208021  0.6400240168150049  0.1417633481323719  1.0000
  O   O2        1.0  0.03312320035183802  0.20283662364818156  0.8423006749944761  1.0000
  O   O3        1.0  0.3141077485634014  0.014556107926182449  0.20547759963665158  1.0000
  O   O4        1.0  0.5440235215573921  0.46258422362734564  0.8162449444644153  1.0000
  F   F1        1.0  0.2870737751945853  0.3392732960637659  0.44815311045385897  1.0000
  F   F2        1.0  0.22138332276517758  0.24884999787900597  0.15761953621404245  1.0000
  F   F3        1.0  0.7813106486573815  0.689427649587742  0.2316286448512983  1.0000
  F   F4        1.0  0.336656121420674  0.6745809870481025  0.59048626862932  1.0000
  F   F5        1.0  0.7207022267393768  0.9256655548815615  0.43652148681576364  1.0000
  F   F6        1.0  0.0022020223550498486  0.06748401536606252  0.42839725338853896  1.0000
  F   F7        1.0  0.8941158362431452  0.08349379996070638  0.35480266335071065  1.0000
  F   F8        1.0  0.8811506698839366  0.6485617124708369  0.6113267164910212  1.0000
  F   F9        1.0  0.6742594457609812  0.6238846197229577  0.8948912517807912  1.0000
  F   F10       1.0  0.4119097284274176  0.878769044575165  0.46574511140352115  1.0000
  F   F11       1.0  0.699157246213872  0.6488109044003068  0.6040360524784774  1.0000
  F   F12       1.0  0.5649747932784521  0.4053732604952529  0.6051572003634647  1.0000
data_image157
_chemical_formula_structural       Sb2H2O4F12
_chemical_formula_sum              "Sb2 H2 O4 F12"
_cell_length_a       5.174112999999999
_cell_length_b       7.3015345668964695
_cell_length_c       8.134955459169152
_cell_angle_alpha    90.9395314512041
_cell_angle_beta     97.22151606041648
_cell_angle_gamma    91.96796560956827

_space_group_name_H-M_alt    "P 1"
_space_group_IT_number       1

loop_
  _space_group_symop_operation_xyz
  'x, y, z'

loop_
  _atom_site_type_symbol
  _atom_site_label
  _atom_site_symmetry_multiplicity
  _atom_site_fract_x
  _atom_site_fract_y
  _atom_site_fract_z
  _atom_site_occupancy
  Sb  Sb1       1.0  0.6788061875849962  0.2196374712511897  0.800586737888807  1.0000
  Sb  Sb2       1.0  0.9407588563062745  0.06540509845945053  0.13062623160658404  1.0000
  H   H1        1.0  0.3243931271135807  0.8639725400425959  0.9168818560428917  1.0000
  H   H2        1.0  0.2458038255572319  0.6619016055483371  0.16276307578664273  1.0000
  O   O1        1.0  0.3826840145047754  0.18681673664832488  0.7820527029689401  1.0000
  O   O2        1.0  0.2854380394273903  0.758660570892971  0.7015321087092161  1.0000
  O   O3        1.0  0.9869875134318136  0.11570231837686151  0.40570148098049685  1.0000
  O   O4        1.0  0.5333947251492646  0.417930634052027  0.6134595967596397  1.0000
  F   F1        1.0  0.8049461119808257  0.8562762837391347  0.07968379720114172  1.0000
  F   F2        1.0  0.7214043602161837  0.5620559475937625  0.10844987374730408  1.0000
  F   F3        1.0  0.8528424255782738  0.44676512256592105  0.26595938574428146  1.0000
  F   F4        1.0  0.22652927716262639  0.20980811151093803  0.24421962469932623  1.0000
  F   F5        1.0  0.15483999927528203  0.6079487103270367  0.7115331570385024  1.0000
  F   F6        1.0  0.793934885179624  0.8521842974587344  0.5542855991516262  1.0000
  F   F7        1.0  0.4196877659414895  0.4009323580394266  0.6785901532130083  1.0000
  F   F8        1.0  0.518908825237304  0.03480675461469218  0.2900058688246645  1.0000
  F   F9        1.0  0.38149990126112243  0.4459917946369387  0.33910540386568755  1.0000
  F   F10       1.0  0.26417660363949835  0.19554322096519172  0.49756132348557003  1.0000
  F   F11       1.0  0.9496698042785283  0.33530442268966  0.04612973643816076  1.0000
  F   F12       1.0  0.7890461902488823  0.8086688121547922  0.6381019385880791  1.0000
data_image158
_chemical_formula_structural       Sb2H2O4F12
_chemical_formula_sum              "Sb2 H2 O4 F12"
_cell_length_a       5.174112999999999
_cell_length_b       7.3015345668964695
_cell_length_c       8.134955459169152
_cell_angle_alpha    90.9395314512041
_cell_angle_beta     97.22151606041648
_cell_angle_gamma    91.96796560956827

_space_group_name_H-M_alt    "P 1"
_space_group_IT_number       1

loop_
  _space_group_symop_operation_xyz
  'x, y, z'

loop_
  _atom_site_type_symbol
  _atom_site_label
  _atom_site_symmetry_multiplicity
  _atom_site_fract_x
  _atom_site_fract_y
  _atom_site_fract_z
  _atom_site_occupancy
  Sb  Sb1       1.0  0.8409222296904773  0.7286642588878749  0.6442380461594439  1.0000
  Sb  Sb2       1.0  0.4084550340348869  0.9096266617707442  0.23027506229118444  1.0000
  H   H1        1.0  0.9709726044675335  0.20739123843668494  0.824640850070864  1.0000
  H   H2        1.0  0.6785267062950879  0.9614695913624018  0.09301143046468496  1.0000
  O   O1        1.0  0.9577798408572562  0.3809414767893031  0.9004886808106676  1.0000
  O   O2        1.0  0.3965252365451306  0.9052489120513201  0.3231990630738437  1.0000
  O   O3        1.0  0.7121180725516751  0.081738349981606  0.7937279114848934  1.0000
  O   O4        1.0  0.539778512706107  0.8153650672466028  0.10258670593611896  1.0000
  F   F1        1.0  0.6896334220655262  0.9553388790227473  0.9151032975642011  1.0000
  F   F2        1.0  0.42084328427517903  0.3276574974297546  0.923046716459794  1.0000
  F   F3        1.0  0.1920322146906983  0.6193702490234045  0.6814572688867315  1.0000
  F   F4        1.0  0.7221127771190368  0.41342797281686217  0.3342532634851523  1.0000
  F   F5        1.0  0.4641329401638359  0.8808534042909741  0.07458403159398586  1.0000
  F   F6        1.0  0.31839839252643287  0.6787920816568658  0.9878850003005937  1.0000
  F   F7        1.0  0.3813640963053331  0.2606372024893062  0.3949162384669762  1.0000
  F   F8        1.0  0.5860704542137682  0.5651342736528022  0.8793683280237019  1.0000
  F   F9        1.0  0.594991711062903  0.4449765259050764  0.24369322240818292  1.0000
  F   F10       1.0  0.40992169023957103  0.7973755982820876  0.46390313442680053  1.0000
  F   F11       1.0  0.8698384893796174  0.7930399756078259  0.8626220556034241  1.0000
  F   F12       1.0  0.7965818677075731  0.24168443761300296  0.9988857905264013  1.0000
data_image159
_chemical_formula_structural       Sb2H2O4F12
_chemical_formula_sum              "Sb2 H2 O4 F12"
_cell_length_a       5.174112999999999
_cell_length_b       7.3015345668964695
_cell_length_c       8.134955459169152
_cell_angle_alpha    90.9395314512041
_cell_angle_beta     97.22151606041648
_cell_angle_gamma    91.96796560956827

_space_group_name_H-M_alt    "P 1"
_space_group_IT_number       1

loop_
  _space_group_symop_operation_xyz
  'x, y, z'

loop_
  _atom_site_type_symbol
  _atom_site_label
  _atom_site_symmetry_multiplicity
  _atom_site_fract_x
  _atom_site_fract_y
  _atom_site_fract_z
  _atom_site_occupancy
  Sb  Sb1       1.0  0.4956883463310078  0.11225591721449746  0.02912137474049814  1.0000
  Sb  Sb2       1.0  0.732572513262312  0.11590064025949687  0.7141099178115837  1.0000
  H   H1        1.0  0.8404677686048672  0.22160335569060408  0.11196105915587395  1.0000
  H   H2        1.0  0.7432284415699542  0.42196410906035453  0.34216155926696956  1.0000
  O   O1        1.0  0.5450448632473126  0.8969098813831806  0.4427226115949452  1.0000
  O   O2        1.0  0.6877985614992213  0.3515076697804034  0.9091610219329596  1.0000
  O   O3        1.0  0.41989961091894656  0.07397318573202938  0.34277124190703034  1.0000
  O   O4        1.0  0.7113284592924174  0.6127001236309297  0.48584031220525503  1.0000
  F   F1        1.0  0.5886421529576182  0.1715107853524387  0.5239254180341959  1.0000
  F   F2        1.0  0.6622630445854156  0.7851760068151634  0.1621866477362346  1.0000
  F   F3        1.0  0.29066537437029183  0.4883093356029349  0.6671728413512028  1.0000
  F   F4        1.0  0.6150003802613355  0.7279326937859878  0.014370734308613464  1.0000
  F   F5        1.0  0.4145662080263719  0.5448530294233933  0.032166628167033195  1.0000
  F   F6        1.0  0.5360364564694464  0.6367819625302218  0.8119628252461553  1.0000
  F   F7        1.0  0.6808446740033105  0.9072729363106191  0.09432996096438728  1.0000
  F   F8        1.0  0.620185749605298  0.13925914418359753  0.03467023040866479  1.0000
  F   F9        1.0  0.5685375159155228  0.8089112883899361  0.3053322553168982  1.0000
  F   F10       1.0  0.20483876712387428  0.033663429974694736  0.27234149898868054  1.0000
  F   F11       1.0  0.23005142614420038  0.5890977244998794  0.005104452051455155  1.0000
  F   F12       1.0  0.5172325838921097  0.38979559077415615  0.7992608170025051  1.0000
data_image160
_chemical_formula_structural       Sb2H2O4F12
_chemical_formula_sum              "Sb2 H2 O4 F12"
_cell_length_a       5.174112999999999
_cell_length_b       7.3015345668964695
_cell_length_c       8.134955459169152
_cell_angle_alpha    90.9395314512041
_cell_angle_beta     97.22151606041648
_cell_angle_gamma    91.96796560956827

_space_group_name_H-M_alt    "P 1"
_space_group_IT_number       1

loop_
  _space_group_symop_operation_xyz
  'x, y, z'

loop_
  _atom_site_type_symbol
  _atom_site_label
  _atom_site_symmetry_multiplicity
  _atom_site_fract_x
  _atom_site_fract_y
  _atom_site_fract_z
  _atom_site_occupancy
  Sb  Sb1       1.0  0.7252432832028717  0.8577724208516884  0.05775921641179593  1.0000
  Sb  Sb2       1.0  0.9745777914326936  0.9949341039464343  0.924962962832069  1.0000
  H   H1        1.0  0.15694090037140995  0.4695257499697618  0.8984875022433698  1.0000
  H   H2        1.0  0.9337907074950635  0.36390413099434227  0.9002559160580859  1.0000
  O   O1        1.0  0.40812281612306833  0.9943617990938947  0.5162767258007079  1.0000
  O   O2        1.0  0.9403758293774445  0.6027833948028274  0.019348809029906988  1.0000
  O   O3        1.0  0.8428297932259738  0.2781281612114981  0.35105650790501386  1.0000
  O   O4        1.0  0.7636466319527244  0.7905311320209876  0.265398375922814  1.0000
  F   F1        1.0  0.5174729395657778  0.7886474933475256  0.08735724946018308  1.0000
  F   F2        1.0  0.7456004119412682  0.9454659408511361  0.3687923853576649  1.0000
  F   F3        1.0  0.44083140019210987  0.714084842677039  0.6393798713706929  1.0000
  F   F4        1.0  0.7395200525061227  0.7842567040643189  0.28964990717940964  1.0000
  F   F5        1.0  0.023426146479323506  0.009481050365138799  0.7686200578464195  1.0000
  F   F6        1.0  0.5939532415941358  0.8112125648185611  0.5864825934404507  1.0000
  F   F7        1.0  0.6173419923288748  0.058734409423777834  0.49402648338582367  1.0000
  F   F8        1.0  0.2719162595458329  0.774180301988963  0.9898061568383127  1.0000
  F   F9        1.0  0.7185915419831872  0.8393689141230425  0.415085007523885  1.0000
  F   F10       1.0  0.48747912159888074  0.0389744786079973  0.0979442915704567  1.0000
  F   F11       1.0  0.0028579716745298356  0.44707851231942186  0.5936275783751626  1.0000
  F   F12       1.0  0.8615058805717126  0.5319693902274594  0.6801611956907436  1.0000
data_image161
_chemical_formula_structural       Sb2H2O4F12
_chemical_formula_sum              "Sb2 H2 O4 F12"
_cell_length_a       5.174112999999999
_cell_length_b       7.3015345668964695
_cell_length_c       8.134955459169152
_cell_angle_alpha    90.9395314512041
_cell_angle_beta     97.22151606041648
_cell_angle_gamma    91.96796560956827

_space_group_name_H-M_alt    "P 1"
_space_group_IT_number       1

loop_
  _space_group_symop_operation_xyz
  'x, y, z'

loop_
  _atom_site_type_symbol
  _atom_site_label
  _atom_site_symmetry_multiplicity
  _atom_site_fract_x
  _atom_site_fract_y
  _atom_site_fract_z
  _atom_site_occupancy
  Sb  Sb1       1.0  0.668602924211882  0.4204911501510651  0.3737308857453172  1.0000
  Sb  Sb2       1.0  0.2325724754341536  0.21690162844606675  0.8699433619331103  1.0000
  H   H1        1.0  0.5355973283294588  0.9945590859861113  0.7276805355213583  1.0000
  H   H2        1.0  0.9170620252843946  0.7776170875295065  0.9913578761043027  1.0000
  O   O1        1.0  0.34064533369382843  0.39548355591250584  0.4289392416831106  1.0000
  O   O2        1.0  0.27167604459100403  0.7334165873471648  0.9788264051312581  1.0000
  O   O3        1.0  0.38873930711997673  0.8865388702834025  0.9530223488109186  1.0000
  O   O4        1.0  0.5600078273564577  0.7688393736025319  0.13452523911837488  1.0000
  F   F1        1.0  0.3103780089877546  0.858335790457204  0.3798911706544459  1.0000
  F   F2        1.0  0.4557577590094297  0.15324083481391426  0.1983785112388432  1.0000
  F   F3        1.0  0.9048688779002987  0.3182282930793008  0.592923473483097  1.0000
  F   F4        1.0  0.3792859651730396  0.6390039199905004  0.34014746523462236  1.0000
  F   F5        1.0  0.12687418889254332  0.407781925809104  0.5485297895502299  1.0000
  F   F6        1.0  0.06004016613587737  0.3792600490851328  0.41660280944779515  1.0000
  F   F7        1.0  0.7217814197065309  0.8638796392770018  0.4872567162674386  1.0000
  F   F8        1.0  0.1587373111397028  0.9445386004808825  0.5010261402931064  1.0000
  F   F9        1.0  0.7796389048162382  0.629734923975775  0.7670270109374542  1.0000
  F   F10       1.0  0.6296651063603349  0.22030191976227798  0.9151530304807238  1.0000
  F   F11       1.0  0.7358557818952249  0.2535723888431676  0.3472173497430049  1.0000
  F   F12       1.0  0.2864702135884727  0.33701169304549694  0.09983612172072753  1.0000
data_image162
_chemical_formula_structural       Sb2H2O4F12
_chemical_formula_sum              "Sb2 H2 O4 F12"
_cell_length_a       5.174112999999999
_cell_length_b       7.3015345668964695
_cell_length_c       8.134955459169152
_cell_angle_alpha    90.9395314512041
_cell_angle_beta     97.22151606041648
_cell_angle_gamma    91.96796560956827

_space_group_name_H-M_alt    "P 1"
_space_group_IT_number       1

loop_
  _space_group_symop_operation_xyz
  'x, y, z'

loop_
  _atom_site_type_symbol
  _atom_site_label
  _atom_site_symmetry_multiplicity
  _atom_site_fract_x
  _atom_site_fract_y
  _atom_site_fract_z
  _atom_site_occupancy
  Sb  Sb1       1.0  0.978002147981897  0.7256167372615892  0.4202166248433059  1.0000
  Sb  Sb2       1.0  0.5621305247391319  0.6617881380952895  0.6180231276666746  1.0000
  H   H1        1.0  0.43627039418788627  0.806536189687904  0.3505916517460719  1.0000
  H   H2        1.0  0.43390426132827997  0.2883444420294836  0.21382736519444734  1.0000
  O   O1        1.0  0.7945153109612875  0.28620821284130216  0.3299022327410057  1.0000
  O   O2        1.0  0.4085840957122855  0.9556930041289888  0.14674995560199022  1.0000
  O   O3        1.0  0.8600797314429656  0.13746227440424263  0.12677022523712367  1.0000
  O   O4        1.0  0.10193769840407185  0.841232840961311  0.5220377631485462  1.0000
  F   F1        1.0  0.11239278130233288  0.8371013554278761  0.23769258218817413  1.0000
  F   F2        1.0  0.5599092992051737  0.3678435189212905  0.1791260169702582  1.0000
  F   F3        1.0  0.2335212115140166  0.9024587253024947  0.5972650773474015  1.0000
  F   F4        1.0  0.4948449343792163  0.6895278853044147  0.6363816424855031  1.0000
  F   F5        1.0  0.7768519974779338  0.22843320074025542  0.2925236918090377  1.0000
  F   F6        1.0  0.9080388282891363  0.07908302906434983  0.21197452151682228  1.0000
  F   F7        1.0  0.9089753163279966  0.18492299412901048  0.2263338246557396  1.0000
  F   F8        1.0  0.17812853446230292  0.2581585807201918  0.5468519215355627  1.0000
  F   F9        1.0  0.40715760926468647  0.7338795558025595  0.5428112987719942  1.0000
  F   F10       1.0  0.951364943117369  0.04969721274392214  0.44826202222611755  1.0000
  F   F11       1.0  0.4167707105661975  0.8337944979466556  0.02943932611378841  1.0000
  F   F12       1.0  0.9897092587602856  0.02790394169278443  0.892370390240103  1.0000
data_image163
_chemical_formula_structural       Sb2H2O4F12
_chemical_formula_sum              "Sb2 H2 O4 F12"
_cell_length_a       5.174112999999999
_cell_length_b       7.3015345668964695
_cell_length_c       8.134955459169152
_cell_angle_alpha    90.9395314512041
_cell_angle_beta     97.22151606041648
_cell_angle_gamma    91.96796560956827

_space_group_name_H-M_alt    "P 1"
_space_group_IT_number       1

loop_
  _space_group_symop_operation_xyz
  'x, y, z'

loop_
  _atom_site_type_symbol
  _atom_site_label
  _atom_site_symmetry_multiplicity
  _atom_site_fract_x
  _atom_site_fract_y
  _atom_site_fract_z
  _atom_site_occupancy
  Sb  Sb1       1.0  0.049979050701949745  0.9116594084043754  0.24618042857764522  1.0000
  Sb  Sb2       1.0  0.6546875757958333  0.3250614648568444  0.6180070591799449  1.0000
  H   H1        1.0  0.19134724634932354  0.4051401547039859  0.918215737096034  1.0000
  H   H2        1.0  0.20278193382546306  0.19573253343696706  0.29058386594988406  1.0000
  O   O1        1.0  0.3038913130876608  0.3241571523831226  0.7900830173166469  1.0000
  O   O2        1.0  0.5718741370365024  0.6650189366191626  0.9065403904533014  1.0000
  O   O3        1.0  0.005916532652918249  0.15812178410124034  0.4349431185401045  1.0000
  O   O4        1.0  0.6920081971911713  0.8535342175455298  0.6764647165546194  1.0000
  F   F1        1.0  0.6600183616392314  0.4824366155080497  0.290124102961272  1.0000
  F   F2        1.0  0.18175505081308074  0.3313467226253124  0.08492488958290778  1.0000
  F   F3        1.0  0.00955839134985581  0.6844221443097922  0.6317222877223685  1.0000
  F   F4        1.0  0.49156980717089027  0.7390069938119268  0.557357813930139  1.0000
  F   F5        1.0  0.6914836966898292  0.8231536519015208  0.7905623161932454  1.0000
  F   F6        1.0  0.19698443752713501  0.543441906105727  0.5376434972276911  1.0000
  F   F7        1.0  0.7670408085687086  0.5064378539973404  0.8972968925081659  1.0000
  F   F8        1.0  0.26136489817872643  0.10686946568603162  0.24644891888601705  1.0000
  F   F9        1.0  0.0012085508133168332  0.8551574145094492  0.9402969302027486  1.0000
  F   F10       1.0  0.028054614318534732  0.6768807007319992  0.4640246279304847  1.0000
  F   F11       1.0  0.03663133545342134  0.6458330095028941  0.38455021526897326  1.0000
  F   F12       1.0  0.7546511164509866  0.024222564999945462  0.4073080199304968  1.0000
data_image164
_chemical_formula_structural       Sb2H2O4F12
_chemical_formula_sum              "Sb2 H2 O4 F12"
_cell_length_a       5.174112999999999
_cell_length_b       7.3015345668964695
_cell_length_c       8.134955459169152
_cell_angle_alpha    90.9395314512041
_cell_angle_beta     97.22151606041648
_cell_angle_gamma    91.96796560956827

_space_group_name_H-M_alt    "P 1"
_space_group_IT_number       1

loop_
  _space_group_symop_operation_xyz
  'x, y, z'

loop_
  _atom_site_type_symbol
  _atom_site_label
  _atom_site_symmetry_multiplicity
  _atom_site_fract_x
  _atom_site_fract_y
  _atom_site_fract_z
  _atom_site_occupancy
  Sb  Sb1       1.0  0.926201060123276  0.5764793894049944  0.5959044542396441  1.0000
  Sb  Sb2       1.0  0.246800487647306  0.5941018818703014  0.3224558765941765  1.0000
  H   H1        1.0  0.9922838667989708  0.6494193550897762  0.523768296232447  1.0000
  H   H2        1.0  0.3579031084664166  0.8424752384598833  0.03395499347243458  1.0000
  O   O1        1.0  0.08487751288339496  0.4794822841649875  0.7092753316974267  1.0000
  O   O2        1.0  0.1279265583725646  0.3534747156081721  0.07616338122170419  1.0000
  O   O3        1.0  0.07526334052090533  0.19292198249604553  0.05271873658057302  1.0000
  O   O4        1.0  0.4188412029761821  0.88937568696565  0.11163914378266782  1.0000
  F   F1        1.0  0.9058579793199897  0.8341923661064357  0.484809631598182  1.0000
  F   F2        1.0  0.014936480147298425  0.6063259427173762  0.9801368506159633  1.0000
  F   F3        1.0  0.9316077764960937  0.23979212579342857  0.7094384699757939  1.0000
  F   F4        1.0  0.19767410834901966  0.6980910964630311  0.8205135877651628  1.0000
  F   F5        1.0  0.04740774282254279  0.48555656883399934  0.8100998100126162  1.0000
  F   F6        1.0  0.1378117403946817  0.7601658672792837  0.6362886278657243  1.0000
  F   F7        1.0  0.11374550266191363  0.9533239513984881  0.0959918278385885  1.0000
  F   F8        1.0  0.2924084644764662  0.32758918454055674  0.8849092162563466  1.0000
  F   F9        1.0  0.10870706454988976  0.5036074362433283  0.40431934443768114  1.0000
  F   F10       1.0  0.6751065214630216  0.14891991871991195  0.7000181298353709  1.0000
  F   F11       1.0  0.4985844340699259  0.9177375403887709  0.5731894513301086  1.0000
  F   F12       1.0  0.2098501293166919  0.6621562867658213  0.2709287710022181  1.0000
data_image165
_chemical_formula_structural       Sb2H2O4F12
_chemical_formula_sum              "Sb2 H2 O4 F12"
_cell_length_a       5.174112999999999
_cell_length_b       7.3015345668964695
_cell_length_c       8.134955459169152
_cell_angle_alpha    90.9395314512041
_cell_angle_beta     97.22151606041648
_cell_angle_gamma    91.96796560956827

_space_group_name_H-M_alt    "P 1"
_space_group_IT_number       1

loop_
  _space_group_symop_operation_xyz
  'x, y, z'

loop_
  _atom_site_type_symbol
  _atom_site_label
  _atom_site_symmetry_multiplicity
  _atom_site_fract_x
  _atom_site_fract_y
  _atom_site_fract_z
  _atom_site_occupancy
  Sb  Sb1       1.0  0.6437932086992078  0.9314225885464111  0.757291122841707  1.0000
  Sb  Sb2       1.0  0.21185642573800578  0.8947040509956423  0.34043496343656443  1.0000
  H   H1        1.0  0.290368904650677  0.18537284291232936  0.15880933799780905  1.0000
  H   H2        1.0  0.9065214237198234  0.6498623074148782  0.5719419559463859  1.0000
  O   O1        1.0  0.0042668518726713955  0.7064850582391955  0.751456888159737  1.0000
  O   O2        1.0  0.6440031678648666  0.010077000129967928  0.3846915049944073  1.0000
  O   O3        1.0  0.2747706608788576  0.7893185800639912  0.08012444380437955  1.0000
  O   O4        1.0  0.2227811055490747  0.548112634831341  0.4796004150994122  1.0000
  F   F1        1.0  0.31953647965565324  0.045232526026666164  0.9794833760242909  1.0000
  F   F2        1.0  0.8654207932704594  0.07434283893962856  0.17064928758190945  1.0000
  F   F3        1.0  0.38987393034039997  0.06665631082705659  0.530102067245025  1.0000
  F   F4        1.0  0.4990476513921749  0.7981145381490933  0.9512936098617502  1.0000
  F   F5        1.0  0.5412773261778057  0.41167549992678687  0.12420068687060848  1.0000
  F   F6        1.0  0.5354186065960675  0.3411579696694389  0.9945311933988705  1.0000
  F   F7        1.0  0.5059981819940731  0.8989898004656425  0.14680793907609768  1.0000
  F   F8        1.0  0.39516954217106104  0.13458895288931672  0.01993128895992413  1.0000
  F   F9        1.0  0.3346269643288906  0.41149969086109195  0.3537273840047419  1.0000
  F   F10       1.0  0.5636084125726484  0.451303603433189  0.6696663946495391  1.0000
  F   F11       1.0  0.9298816688933584  0.9883034960730583  0.4382442613132298  1.0000
  F   F12       1.0  0.35826321546846884  0.13417768466752023  0.19606802164344117  1.0000
data_image166
_chemical_formula_structural       Sb2H2O4F12
_chemical_formula_sum              "Sb2 H2 O4 F12"
_cell_length_a       5.174112999999999
_cell_length_b       7.3015345668964695
_cell_length_c       8.134955459169152
_cell_angle_alpha    90.9395314512041
_cell_angle_beta     97.22151606041648
_cell_angle_gamma    91.96796560956827

_space_group_name_H-M_alt    "P 1"
_space_group_IT_number       1

loop_
  _space_group_symop_operation_xyz
  'x, y, z'

loop_
  _atom_site_type_symbol
  _atom_site_label
  _atom_site_symmetry_multiplicity
  _atom_site_fract_x
  _atom_site_fract_y
  _atom_site_fract_z
  _atom_site_occupancy
  Sb  Sb1       1.0  0.5400272000115365  0.3921735301046283  0.9425478804623708  1.0000
  Sb  Sb2       1.0  0.38943509514319885  0.19185077160364017  0.44142402344732545  1.0000
  H   H1        1.0  0.6174991638690699  0.47855739726219326  0.2223307794192806  1.0000
  H   H2        1.0  0.9573593381792307  0.34420879441313446  0.7018595188856125  1.0000
  O   O1        1.0  0.5949385284911841  0.6594689850753639  0.7838870186824352  1.0000
  O   O2        1.0  0.7994025947991759  0.7854858087957837  0.35852212086319923  1.0000
  O   O3        1.0  0.2757414911466185  0.8320007656584494  0.21604565088637173  1.0000
  O   O4        1.0  0.604883398860693  0.7003232002316508  0.4607836772920564  1.0000
  F   F1        1.0  0.9615133036859334  0.3775612856261432  0.1705853046150878  1.0000
  F   F2        1.0  0.19935929274652153  0.8790445871127304  0.9959025778225623  1.0000
  F   F3        1.0  0.4846757801133208  0.43685434598046413  0.6812712457976886  1.0000
  F   F4        1.0  0.4293466538656503  0.12329394769039936  0.32916364882839844  1.0000
  F   F5        1.0  0.3221634782385081  0.9008837752044201  0.3756076101853978  1.0000
  F   F6        1.0  0.2502995706163347  0.901119417627342  0.1366054293466732  1.0000
  F   F7        1.0  0.7401846093125641  0.11359019500378054  0.007044045371003449  1.0000
  F   F8        1.0  0.27806798135861754  0.4546716335025849  0.7513314117095433  1.0000
  F   F9        1.0  0.26271305048067006  0.22207759632146917  0.7309898774838075  1.0000
  F   F10       1.0  0.8021273401682265  0.06095980841200799  0.45304928088444285  1.0000
  F   F11       1.0  0.6960371300810948  0.8476619503344409  0.025985036394558847  1.0000
  F   F12       1.0  0.452775518380804  0.10241842607501894  0.12466836383100599  1.0000
data_image167
_chemical_formula_structural       Sb2H2O4F12
_chemical_formula_sum              "Sb2 H2 O4 F12"
_cell_length_a       5.174112999999999
_cell_length_b       7.3015345668964695
_cell_length_c       8.134955459169152
_cell_angle_alpha    90.9395314512041
_cell_angle_beta     97.22151606041648
_cell_angle_gamma    91.96796560956827

_space_group_name_H-M_alt    "P 1"
_space_group_IT_number       1

loop_
  _space_group_symop_operation_xyz
  'x, y, z'

loop_
  _atom_site_type_symbol
  _atom_site_label
  _atom_site_symmetry_multiplicity
  _atom_site_fract_x
  _atom_site_fract_y
  _atom_site_fract_z
  _atom_site_occupancy
  Sb  Sb1       1.0  0.4880054263630882  0.9025884299408062  0.9438056432045414  1.0000
  Sb  Sb2       1.0  0.8008404116881138  0.009671605075709522  0.31777303729904816  1.0000
  H   H1        1.0  0.17151285262661986  0.5688480781391263  0.5044255047105253  1.0000
  H   H2        1.0  0.7604784602299333  0.8656457580509596  0.7559421183541417  1.0000
  O   O1        1.0  0.5048576559638605  0.8033870893123094  0.7666359702125192  1.0000
  O   O2        1.0  0.134472819394432  0.9721372096100822  0.9673528760904446  1.0000
  O   O3        1.0  0.9766498828830663  0.566892490547616  0.6228201189660467  1.0000
  O   O4        1.0  0.9276359758805484  0.166929538740078  0.39856298454105854  1.0000
  F   F1        1.0  0.2896999907679856  0.30859434604644775  0.9980641597649083  1.0000
  F   F2        1.0  0.7751560125907417  0.015928099543089047  0.8364304036658723  1.0000
  F   F3        1.0  0.4436197826289572  0.3767088259646698  0.7473183658476046  1.0000
  F   F4        1.0  0.5885722188686486  0.5371532999706687  0.46664119165507145  1.0000
  F   F5        1.0  0.7703613012563437  0.7993920748122036  0.056181680323788896  1.0000
  F   F6        1.0  0.049118660390377045  0.922697294561658  0.5250621164450422  1.0000
  F   F7        1.0  0.6576164002763107  0.7226873740437441  0.06501703336834908  1.0000
  F   F8        1.0  0.2948182770051062  0.9382223030115711  0.853842822718434  1.0000
  F   F9        1.0  0.72050019991093  0.5893560616386821  0.07613743157708086  1.0000
  F   F10       1.0  0.06054987170500681  0.5275450896588154  0.10677541748736985  1.0000
  F   F11       1.0  0.6238898670781055  0.16973567085369723  0.6941967432794627  1.0000
  F   F12       1.0  0.5762542387092253  0.7182776079280302  0.5988583667785861  1.0000
data_image168
_chemical_formula_structural       Sb2H2O4F12
_chemical_formula_sum              "Sb2 H2 O4 F12"
_cell_length_a       5.174112999999999
_cell_length_b       7.3015345668964695
_cell_length_c       8.134955459169152
_cell_angle_alpha    90.9395314512041
_cell_angle_beta     97.22151606041648
_cell_angle_gamma    91.96796560956827

_space_group_name_H-M_alt    "P 1"
_space_group_IT_number       1

loop_
  _space_group_symop_operation_xyz
  'x, y, z'

loop_
  _atom_site_type_symbol
  _atom_site_label
  _atom_site_symmetry_multiplicity
  _atom_site_fract_x
  _atom_site_fract_y
  _atom_site_fract_z
  _atom_site_occupancy
  Sb  Sb1       1.0  0.5903875561780296  0.1334961073298473  0.4511824235887616  1.0000
  Sb  Sb2       1.0  0.12427223626764317  0.6820142499636859  0.9508562812989112  1.0000
  H   H1        1.0  0.7267051324015483  0.015349780791439116  0.5131926070898771  1.0000
  H   H2        1.0  0.6304577477276325  0.9694010027742479  0.7217898574890569  1.0000
  O   O1        1.0  0.9908246904378757  0.1795715408225078  0.006920005427673459  1.0000
  O   O2        1.0  0.3369322655489668  0.24957950878888369  0.9006074921926484  1.0000
  O   O3        1.0  0.1785535981762223  0.7674678463372402  0.489557619090192  1.0000
  O   O4        1.0  0.4121462778421119  0.7214778607594781  0.09486009110696614  1.0000
  F   F1        1.0  0.23567060008645058  0.3641666506882757  0.2777536214562133  1.0000
  F   F2        1.0  0.6549707838275936  0.8996644162398297  0.6315691379131749  1.0000
  F   F3        1.0  0.7214837357751094  0.3088333354776296  0.054132019104145  1.0000
  F   F4        1.0  0.6785738765902352  0.629649666880141  0.41638505560695194  1.0000
  F   F5        1.0  0.07805615093093365  0.7625787449069321  0.9668712978163967  1.0000
  F   F6        1.0  0.9160222734790295  0.7466220517526381  0.9526574090123177  1.0000
  F   F7        1.0  0.15206120756920427  0.3974225998535985  0.9862787303281948  1.0000
  F   F8        1.0  0.9745039450936019  0.8132284395396709  0.5702513308497146  1.0000
  F   F9        1.0  0.4914903589092319  0.7710239288280718  0.17498162653646432  1.0000
  F   F10       1.0  0.6530389192630537  0.606808469601674  0.5348333002766594  1.0000
  F   F11       1.0  0.5034921673359349  0.18604924070677953  0.9682026230439078  1.0000
  F   F12       1.0  0.9174468960991362  0.7969138289336115  0.6812207866460085  1.0000
data_image169
_chemical_formula_structural       Sb2H2O4F12
_chemical_formula_sum              "Sb2 H2 O4 F12"
_cell_length_a       5.174112999999999
_cell_length_b       7.3015345668964695
_cell_length_c       8.134955459169152
_cell_angle_alpha    90.9395314512041
_cell_angle_beta     97.22151606041648
_cell_angle_gamma    91.96796560956827

_space_group_name_H-M_alt    "P 1"
_space_group_IT_number       1

loop_
  _space_group_symop_operation_xyz
  'x, y, z'

loop_
  _atom_site_type_symbol
  _atom_site_label
  _atom_site_symmetry_multiplicity
  _atom_site_fract_x
  _atom_site_fract_y
  _atom_site_fract_z
  _atom_site_occupancy
  Sb  Sb1       1.0  0.3445539234089665  0.5971120569447521  0.29068302532687085  1.0000
  Sb  Sb2       1.0  0.36759460009852774  0.24988114481675439  0.254908741597319  1.0000
  H   H1        1.0  0.1755557593132835  0.040958988247439265  0.31288660294376314  1.0000
  H   H2        1.0  0.7167243747971952  0.9055753358697984  0.4649854910094291  1.0000
  O   O1        1.0  0.5530997461173683  0.2037533239054028  0.5763638385105878  1.0000
  O   O2        1.0  0.930219114641659  0.37063458148622885  0.42562321212608367  1.0000
  O   O3        1.0  0.09228726325090975  0.7355287129757926  0.2808899622759782  1.0000
  O   O4        1.0  0.7870659946056549  0.8855197521625087  0.37695930479094386  1.0000
  F   F1        1.0  0.933967019431293  0.14401860116049647  0.616519283154048  1.0000
  F   F2        1.0  0.3021385128959082  0.2249289439059794  0.8166096814384218  1.0000
  F   F3        1.0  0.34341007795592304  0.11856128241470287  0.7106649732777441  1.0000
  F   F4        1.0  0.5192094626836479  0.508336777886143  0.09325473930221051  1.0000
  F   F5        1.0  0.5058264544932172  0.41042901790933684  0.4366601054207422  1.0000
  F   F6        1.0  0.7887733338866383  0.29724733310285956  0.8077645105076954  1.0000
  F   F7        1.0  0.37953159492462873  0.5463853319379268  0.7722277188149747  1.0000
  F   F8        1.0  0.345624019857496  0.8171383183362195  0.29404362331843004  1.0000
  F   F9        1.0  0.762603281372435  0.02650996032753028  0.06003551968024112  1.0000
  F   F10       1.0  0.7862290206248872  0.11773858295055106  0.26529689790913835  1.0000
  F   F11       1.0  0.1939365325451945  0.6716601273728884  0.647755707759643  1.0000
  F   F12       1.0  0.7452825403961469  0.3695411798544228  0.5587611299124546  1.0000
data_image170
_chemical_formula_structural       Sb2H2O4F12
_chemical_formula_sum              "Sb2 H2 O4 F12"
_cell_length_a       5.174112999999999
_cell_length_b       7.3015345668964695
_cell_length_c       8.134955459169152
_cell_angle_alpha    90.9395314512041
_cell_angle_beta     97.22151606041648
_cell_angle_gamma    91.96796560956827

_space_group_name_H-M_alt    "P 1"
_space_group_IT_number       1

loop_
  _space_group_symop_operation_xyz
  'x, y, z'

loop_
  _atom_site_type_symbol
  _atom_site_label
  _atom_site_symmetry_multiplicity
  _atom_site_fract_x
  _atom_site_fract_y
  _atom_site_fract_z
  _atom_site_occupancy
  Sb  Sb1       1.0  0.2784402647521347  0.3448403536967817  0.8904897133834311  1.0000
  Sb  Sb2       1.0  0.9829117113622488  0.15886626520659775  0.07940424996195361  1.0000
  H   H1        1.0  0.10757525183726102  0.7541780819010455  0.5268313179258257  1.0000
  H   H2        1.0  0.5185962663963437  0.41007558823912404  0.38687118550296873  1.0000
  O   O1        1.0  0.30861274525523186  0.8568532216595486  0.6983818823937327  1.0000
  O   O2        1.0  0.5784709332510829  0.6854508043616079  0.17899307108018547  1.0000
  O   O3        1.0  0.2502350948052481  0.4846908900071867  0.9488372105406597  1.0000
  O   O4        1.0  0.19276594754774123  0.46743294660700485  0.877917199744843  1.0000
  F   F1        1.0  0.6230740658938885  0.55087801348418  0.4982743988512084  1.0000
  F   F2        1.0  0.7192553009081166  0.8259929335035849  0.21756757123512216  1.0000
  F   F3        1.0  0.8005060764262453  0.6947422548728355  0.9687400017610344  1.0000
  F   F4        1.0  0.18727107194717973  0.0668099423055537  0.8708213627978694  1.0000
  F   F5        1.0  0.9401767740491778  0.6744405486388132  0.0806306302692974  1.0000
  F   F6        1.0  0.1804713939782232  0.5376542608719319  0.6910085594281554  1.0000
  F   F7        1.0  0.20526094525121152  0.9255083196039777  0.5301852295524441  1.0000
  F   F8        1.0  0.9654094413854182  0.2755928249389399  0.7812925545731559  1.0000
  F   F9        1.0  0.5292980433869161  0.5007366386125796  0.5201727852108888  1.0000
  F   F10       1.0  0.28069228294771165  0.8044947351445444  0.33833208310534246  1.0000
  F   F11       1.0  0.027593210608756635  0.9313589295416023  0.08918286705738865  1.0000
  F   F12       1.0  0.04905076946670306  0.9632736385101452  0.8418610046501271  1.0000
data_image171
_chemical_formula_structural       Sb2H2O4F12
_chemical_formula_sum              "Sb2 H2 O4 F12"
_cell_length_a       5.174112999999999
_cell_length_b       7.3015345668964695
_cell_length_c       8.134955459169152
_cell_angle_alpha    90.9395314512041
_cell_angle_beta     97.22151606041648
_cell_angle_gamma    91.96796560956827

_space_group_name_H-M_alt    "P 1"
_space_group_IT_number       1

loop_
  _space_group_symop_operation_xyz
  'x, y, z'

loop_
  _atom_site_type_symbol
  _atom_site_label
  _atom_site_symmetry_multiplicity
  _atom_site_fract_x
  _atom_site_fract_y
  _atom_site_fract_z
  _atom_site_occupancy
  Sb  Sb1       1.0  0.5188655167003162  0.916859217802994  0.8971405575139215  1.0000
  Sb  Sb2       1.0  0.9272878495485202  0.19633517353213392  0.0020054124179296196  1.0000
  H   H1        1.0  0.4635357962397393  0.6825718620675616  0.2712629090528935  1.0000
  H   H2        1.0  0.4539222144521773  0.27246307805762626  0.10233889683149755  1.0000
  O   O1        1.0  0.5141966785304248  0.7253477972117253  0.9646559724351391  1.0000
  O   O2        1.0  0.12499285151716322  0.4357208199799061  0.9773536124266684  1.0000
  O   O3        1.0  0.1314914474496618  0.981702221732121  0.8269223619136028  1.0000
  O   O4        1.0  0.36378996321582235  0.28989786107558757  0.2645217386307195  1.0000
  F   F1        1.0  0.09090963704511523  0.21177371544763446  0.2268432849086821  1.0000
  F   F2        1.0  0.49755197390913963  0.14416312033426948  0.867375942732906  1.0000
  F   F3        1.0  0.6339245375565952  0.31521142278506886  0.5794053091685782  1.0000
  F   F4        1.0  0.8773643374443054  0.9914502743631601  0.008227914164308459  1.0000
  F   F5        1.0  0.9167922429041937  0.2759258002624847  0.21485871566983406  1.0000
  F   F6        1.0  0.5260089903604239  0.3549663746962324  0.24322249577380717  1.0000
  F   F7        1.0  0.8911235282430425  0.7834516357688699  0.4231099763419479  1.0000
  F   F8        1.0  0.4850068618543446  0.06935430891462602  0.8510980045539327  1.0000
  F   F9        1.0  0.28261298758479825  0.8532424825680209  0.04744322586338967  1.0000
  F   F10       1.0  0.9722911512944847  0.914479413360823  0.6096614364651032  1.0000
  F   F11       1.0  0.6468606954731513  0.0441211644501891  0.35039585901540704  1.0000
  F   F12       1.0  0.5725352305744309  0.8090659335721284  0.34513803193112835  1.0000
data_image172
_chemical_formula_structural       Sb2H2O4F12
_chemical_formula_sum              "Sb2 H2 O4 F12"
_cell_length_a       5.174112999999999
_cell_length_b       7.3015345668964695
_cell_length_c       8.134955459169152
_cell_angle_alpha    90.9395314512041
_cell_angle_beta     97.22151606041648
_cell_angle_gamma    91.96796560956827

_space_group_name_H-M_alt    "P 1"
_space_group_IT_number       1

loop_
  _space_group_symop_operation_xyz
  'x, y, z'

loop_
  _atom_site_type_symbol
  _atom_site_label
  _atom_site_symmetry_multiplicity
  _atom_site_fract_x
  _atom_site_fract_y
  _atom_site_fract_z
  _atom_site_occupancy
  Sb  Sb1       1.0  0.1247173662413843  0.8224318774446147  0.9628013688052306  1.0000
  Sb  Sb2       1.0  0.08903904458202305  0.37145647741272114  0.8293419390392955  1.0000
  H   H1        1.0  0.6897938095789868  0.19191342929843813  0.3418542154831812  1.0000
  H   H2        1.0  0.03135271416977048  0.2563701346516609  0.9108239702181891  1.0000
  O   O1        1.0  0.2552142031490803  0.24315939380903728  0.88321005506441  1.0000
  O   O2        1.0  0.1713400628650561  0.1583231565891765  0.940078558633104  1.0000
  O   O3        1.0  0.6010838227230124  0.010812430991791189  0.7043830927577801  1.0000
  O   O4        1.0  0.1964046428911388  0.4414390080492012  0.30672055447939783  1.0000
  F   F1        1.0  0.6207607481628656  0.23169594444334507  0.8344335021683946  1.0000
  F   F2        1.0  0.6385079655738082  0.30829572954098694  0.878807668457739  1.0000
  F   F3        1.0  0.9272560002973478  0.940012809674954  0.7955059473988513  1.0000
  F   F4        1.0  0.9716891407733783  0.9246242217486724  0.9486628363956697  1.0000
  F   F5        1.0  0.8453186340630054  0.256173467845656  0.050914210733026266  1.0000
  F   F6        1.0  0.17340691247954965  0.18577894807094708  0.7777913240715861  1.0000
  F   F7        1.0  0.5859673948725685  0.7902626911818516  0.5663121509714983  1.0000
  F   F8        1.0  0.48056134581565857  0.8045364563295152  0.04131868510739878  1.0000
  F   F9        1.0  0.43929425368332886  0.763295861586812  0.7547420662303921  1.0000
  F   F10       1.0  0.056397370470222086  0.23596184232155792  0.9477197070373222  1.0000
  F   F11       1.0  0.17635600467474433  0.49116173145739594  0.08310079615330324  1.0000
  F   F12       1.0  0.25825552523019724  0.9528223724337295  0.8224094452452846  1.0000
data_image173
_chemical_formula_structural       Sb2H2O4F12
_chemical_formula_sum              "Sb2 H2 O4 F12"
_cell_length_a       5.174112999999999
_cell_length_b       7.3015345668964695
_cell_length_c       8.134955459169152
_cell_angle_alpha    90.9395314512041
_cell_angle_beta     97.22151606041648
_cell_angle_gamma    91.96796560956827

_space_group_name_H-M_alt    "P 1"
_space_group_IT_number       1

loop_
  _space_group_symop_operation_xyz
  'x, y, z'

loop_
  _atom_site_type_symbol
  _atom_site_label
  _atom_site_symmetry_multiplicity
  _atom_site_fract_x
  _atom_site_fract_y
  _atom_site_fract_z
  _atom_site_occupancy
  Sb  Sb1       1.0  0.36402712832205  0.7503103716226178  0.732866082493274  1.0000
  Sb  Sb2       1.0  0.6088532192043203  0.3895487828995101  0.41150468346313573  1.0000
  H   H1        1.0  0.6778125129640102  0.08096852642484009  0.25237968063447624  1.0000
  H   H2        1.0  0.44100527511909604  0.3680243655689992  0.821665198309347  1.0000
  O   O1        1.0  0.021301681990735233  0.49519937348668464  0.2579474904341623  1.0000
  O   O2        1.0  0.097416136180982  0.8520538533921354  0.37232414772734046  1.0000
  O   O3        1.0  0.5613208759459667  0.1627561214263551  0.52984502754407  1.0000
  O   O4        1.0  0.7179116391635034  0.6596907570201438  0.5443951633060351  1.0000
  F   F1        1.0  0.9690879671834409  0.7733434960246086  0.7812883659498766  1.0000
  F   F2        1.0  0.8023387936409563  0.11575399196590297  0.06140998759656213  1.0000
  F   F3        1.0  0.32985858751635533  0.7782110573425598  0.5430906545298058  1.0000
  F   F4        1.0  0.5312781952088699  0.8454013790469617  0.8947595679783262  1.0000
  F   F5        1.0  0.130578784737736  0.32987105700885877  0.8611133759113727  1.0000
  F   F6        1.0  0.17477548262104392  0.5915355290635489  0.7118295518448576  1.0000
  F   F7        1.0  0.8779345747316256  0.23558210738701746  0.713670558470767  1.0000
  F   F8        1.0  0.33828397188335657  0.42653487095958553  0.6570824135560542  1.0000
  F   F9        1.0  0.23202230861897988  0.8292771757260198  0.392888425005367  1.0000
  F   F10       1.0  0.17767496831947938  0.6745596130785998  0.18969942201511003  1.0000
  F   F11       1.0  0.22466122671903577  0.5748447188379942  0.42579100001603365  1.0000
  F   F12       1.0  0.23693081771489233  0.18986457481514663  0.617564304440748  1.0000
data_image174
_chemical_formula_structural       Sb2H2O4F12
_chemical_formula_sum              "Sb2 H2 O4 F12"
_cell_length_a       5.174112999999999
_cell_length_b       7.3015345668964695
_cell_length_c       8.134955459169152
_cell_angle_alpha    90.9395314512041
_cell_angle_beta     97.22151606041648
_cell_angle_gamma    91.96796560956827

_space_group_name_H-M_alt    "P 1"
_space_group_IT_number       1

loop_
  _space_group_symop_operation_xyz
  'x, y, z'

loop_
  _atom_site_type_symbol
  _atom_site_label
  _atom_site_symmetry_multiplicity
  _atom_site_fract_x
  _atom_site_fract_y
  _atom_site_fract_z
  _atom_site_occupancy
  Sb  Sb1       1.0  0.5450624177465215  0.48471800234983675  0.7578917663704487  1.0000
  Sb  Sb2       1.0  0.4303656306628909  0.8701918410661165  0.4467535751173273  1.0000
  H   H1        1.0  0.31290920777246356  0.6018678700202145  0.3538960361620411  1.0000
  H   H2        1.0  0.7193922358565032  0.2630539333913475  0.9860998985823244  1.0000
  O   O1        1.0  0.5901158431079239  0.9636089674022514  0.22299070341978222  1.0000
  O   O2        1.0  0.44641205354128033  0.09636016038712114  0.5929313590750098  1.0000
  O   O3        1.0  0.15228174900403246  0.6637551622116007  0.019799886213149875  1.0000
  O   O4        1.0  0.8649507218506187  0.043060114519903436  0.10915831499733031  1.0000
  F   F1        1.0  0.31184881180524826  0.2776361049618572  0.9154930004151538  1.0000
  F   F2        1.0  0.05444363430433441  0.8504501508141402  0.2007827405759599  1.0000
  F   F3        1.0  0.8013608337496407  0.21599100105959224  0.6315828983806568  1.0000
  F   F4        1.0  0.8626896868809126  0.6263071994180791  0.3104288376052864  1.0000
  F   F5        1.0  0.13697179511655122  0.00039187551010400057  0.004334985380410217  1.0000
  F   F6        1.0  0.6737298585940152  0.7237030158867128  0.009902190417051315  1.0000
  F   F7        1.0  0.462722074938938  0.9921540942159481  0.8662548531719949  1.0000
  F   F8        1.0  0.2617027908563614  0.8905360566277523  0.01913223584415391  1.0000
  F   F9        1.0  0.5410735964887863  0.23979751359729562  0.44181407091673464  1.0000
  F   F10       1.0  0.28421647247159854  0.043533842341275886  0.20966195265646093  1.0000
  F   F11       1.0  0.9907254886202281  0.09466462338605197  0.45456506143091246  1.0000
  F   F12       1.0  0.758789142491878  0.7476184597471729  0.40697272086981684  1.0000
data_image175
_chemical_formula_structural       Sb2H2O4F12
_chemical_formula_sum              "Sb2 H2 O4 F12"
_cell_length_a       5.174112999999999
_cell_length_b       7.3015345668964695
_cell_length_c       8.134955459169152
_cell_angle_alpha    90.9395314512041
_cell_angle_beta     97.22151606041648
_cell_angle_gamma    91.96796560956827

_space_group_name_H-M_alt    "P 1"
_space_group_IT_number       1

loop_
  _space_group_symop_operation_xyz
  'x, y, z'

loop_
  _atom_site_type_symbol
  _atom_site_label
  _atom_site_symmetry_multiplicity
  _atom_site_fract_x
  _atom_site_fract_y
  _atom_site_fract_z
  _atom_site_occupancy
  Sb  Sb1       1.0  0.1891074547311291  0.8093917532532942  0.08464576914411737  1.0000
  Sb  Sb2       1.0  0.48240866476317024  0.18709264235803857  0.5711790594505146  1.0000
  H   H1        1.0  0.586454517673701  0.7953330467571504  0.565252187428996  1.0000
  H   H2        1.0  0.9175113462843001  0.8927144401241094  0.3277982301078737  1.0000
  O   O1        1.0  0.2747207545908168  0.6735007451206911  0.7805244404589757  1.0000
  O   O2        1.0  0.3709995455574244  0.5815135547309183  0.14443323796149343  1.0000
  O   O3        1.0  0.3019639642443508  0.6118317318614572  0.3756803883006796  1.0000
  O   O4        1.0  0.09101661923341453  0.06440527029917575  0.3929446004331112  1.0000
  F   F1        1.0  0.9091386282816529  0.02200773567892611  0.6153299021534622  1.0000
  F   F2        1.0  0.6283191852417076  0.28810089369653724  0.04923869945923798  1.0000
  F   F3        1.0  0.3555524433231767  0.9488381418268546  0.5180114942468208  1.0000
  F   F4        1.0  0.6656375039019622  0.17920223425608128  0.5454551035654731  1.0000
  F   F5        1.0  0.8273146153660491  0.9135646959766746  0.9469836228818167  1.0000
  F   F6        1.0  0.7722787756938487  0.6973991265986115  0.5735170085681602  1.0000
  F   F7        1.0  0.3278501491295174  0.02227498489082791  0.8762940995220561  1.0000
  F   F8        1.0  0.7970600696280599  0.999552721856162  0.8022290532826446  1.0000
  F   F9        1.0  0.1255017906005378  0.6974843590869568  0.6019575425307266  1.0000
  F   F10       1.0  0.8796111230039969  0.05934291737503372  0.031836980720981956  1.0000
  F   F11       1.0  0.6861193556019316  0.17421510339772794  0.6246251922566444  1.0000
  F   F12       1.0  0.0538766326935729  0.28639562346506864  0.0023520225076936185  1.0000
data_image176
_chemical_formula_structural       Sb2H2O4F12
_chemical_formula_sum              "Sb2 H2 O4 F12"
_cell_length_a       5.174112999999999
_cell_length_b       7.3015345668964695
_cell_length_c       8.134955459169152
_cell_angle_alpha    90.9395314512041
_cell_angle_beta     97.22151606041648
_cell_angle_gamma    91.96796560956827

_space_group_name_H-M_alt    "P 1"
_space_group_IT_number       1

loop_
  _space_group_symop_operation_xyz
  'x, y, z'

loop_
  _atom_site_type_symbol
  _atom_site_label
  _atom_site_symmetry_multiplicity
  _atom_site_fract_x
  _atom_site_fract_y
  _atom_site_fract_z
  _atom_site_occupancy
  Sb  Sb1       1.0  0.47859258932294324  0.4595268256689451  0.5022048293467378  1.0000
  Sb  Sb2       1.0  0.4639884866155626  0.2683448967873119  0.1781829110113904  1.0000
  H   H1        1.0  0.9479606777022127  0.3890376962372102  0.3757491634460166  1.0000
  H   H2        1.0  0.2492601191624999  0.42336600949056447  0.41993344901129603  1.0000
  O   O1        1.0  0.7842555599054322  0.41809247180935927  0.8416526351356879  1.0000
  O   O2        1.0  0.011380789917893708  0.4829211282194592  0.7059820945141837  1.0000
  O   O3        1.0  0.078299620305188  0.4163953677052632  0.9347539090085775  1.0000
  O   O4        1.0  0.5641291966894642  0.46616915459162556  0.9025902490830049  1.0000
  F   F1        1.0  0.47398010082542896  0.5707273022271693  0.1123973346548155  1.0000
  F   F2        1.0  0.48921788373263553  0.7098484087910037  0.6321164161490742  1.0000
  F   F3        1.0  0.9797464197035879  0.9725303266895935  0.39656411251053214  1.0000
  F   F4        1.0  0.9627120574004948  0.0688151969370665  0.9805803617055062  1.0000
  F   F5        1.0  0.4893961881753057  0.7856171862476913  0.5115870146546513  1.0000
  F   F6        1.0  0.5396743139717728  0.39112632611067966  0.8084297659806907  1.0000
  F   F7        1.0  0.9955200031399727  0.6728106389346067  0.8161081827420276  1.0000
  F   F8        1.0  0.2995482203550637  0.9735180358111393  0.5538603544118814  1.0000
  F   F9        1.0  0.5041483551758574  0.8562425273121335  0.46048546582460403  1.0000
  F   F10       1.0  0.7631269115663599  0.7840266334533226  0.36264874015614623  1.0000
  F   F11       1.0  0.6454056656639295  0.7927900722570485  0.18745283255702816  1.0000
  F   F12       1.0  0.9142049275542377  0.716182425734587  0.04864467360312119  1.0000
data_image177
_chemical_formula_structural       Sb2H2O4F12
_chemical_formula_sum              "Sb2 H2 O4 F12"
_cell_length_a       5.174112999999999
_cell_length_b       7.3015345668964695
_cell_length_c       8.134955459169152
_cell_angle_alpha    90.9395314512041
_cell_angle_beta     97.22151606041648
_cell_angle_gamma    91.96796560956827

_space_group_name_H-M_alt    "P 1"
_space_group_IT_number       1

loop_
  _space_group_symop_operation_xyz
  'x, y, z'

loop_
  _atom_site_type_symbol
  _atom_site_label
  _atom_site_symmetry_multiplicity
  _atom_site_fract_x
  _atom_site_fract_y
  _atom_site_fract_z
  _atom_site_occupancy
  Sb  Sb1       1.0  0.8861074687447399  0.2873418716953893  0.2997412982658716  1.0000
  Sb  Sb2       1.0  0.8340215723146684  0.7285933693783591  0.8715575312380679  1.0000
  H   H1        1.0  0.9094530994625529  0.23920516663929448  0.4913591380463913  1.0000
  H   H2        1.0  0.6815685830079019  0.3343864531489089  0.12082778243348002  1.0000
  O   O1        1.0  0.8158788342261687  0.4928485704003833  0.6026829167967662  1.0000
  O   O2        1.0  0.9524089785991237  0.49141403031535447  0.3383686544839293  1.0000
  O   O3        1.0  0.19129209482343867  0.32843172701541334  0.7261479884618893  1.0000
  O   O4        1.0  0.736667565186508  0.09716161436517723  0.9948617100017145  1.0000
  F   F1        1.0  0.139177858363837  0.085996029432863  0.8193977632327005  1.0000
  F   F2        1.0  0.6952431917889044  0.7931896503432654  0.7390299858816434  1.0000
  F   F3        1.0  0.9680818389169872  0.6020481697050855  0.44123697275063023  1.0000
  F   F4        1.0  0.05047220841515809  0.1490613900095923  0.9489505133242346  1.0000
  F   F5        1.0  0.3498787214048207  0.8304190636845306  0.15827421518042684  1.0000
  F   F6        1.0  0.6676948266103864  0.33958302123937756  0.6071828326676041  1.0000
  F   F7        1.0  0.161792510189116  0.01720873374142684  0.4793502739921678  1.0000
  F   F8        1.0  0.11949893552809954  0.6486252647882793  0.9730071311350912  1.0000
  F   F9        1.0  0.6527392292919103  0.8076265092531685  0.5797593810420949  1.0000
  F   F10       1.0  0.22220704816572834  0.3697526558244135  0.01380202840664424  1.0000
  F   F11       1.0  0.28518797270362484  0.9222189551219344  0.6956701098824851  1.0000
  F   F12       1.0  0.5104883260210045  0.993889000499621  0.9230784944957122  1.0000
data_image178
_chemical_formula_structural       Sb2H2O4F12
_chemical_formula_sum              "Sb2 H2 O4 F12"
_cell_length_a       5.174112999999999
_cell_length_b       7.3015345668964695
_cell_length_c       8.134955459169152
_cell_angle_alpha    90.9395314512041
_cell_angle_beta     97.22151606041648
_cell_angle_gamma    91.96796560956827

_space_group_name_H-M_alt    "P 1"
_space_group_IT_number       1

loop_
  _space_group_symop_operation_xyz
  'x, y, z'

loop_
  _atom_site_type_symbol
  _atom_site_label
  _atom_site_symmetry_multiplicity
  _atom_site_fract_x
  _atom_site_fract_y
  _atom_site_fract_z
  _atom_site_occupancy
  Sb  Sb1       1.0  0.5067502921447158  0.8021348628681153  0.28619311325019225  1.0000
  Sb  Sb2       1.0  0.5908561320247827  0.8944669551274274  0.21088539657648653  1.0000
  H   H1        1.0  0.517623378400458  0.15368165873223916  0.7661599210696295  1.0000
  H   H2        1.0  0.823091883212328  0.8336463690502569  0.785015847417526  1.0000
  O   O1        1.0  0.12569292925763875  0.04759686719626188  0.8025095262564719  1.0000
  O   O2        1.0  0.603406777838245  0.10076070082141086  0.8923797335010022  1.0000
  O   O3        1.0  0.6587486501084641  0.8874154227669351  0.8714025634690188  1.0000
  O   O4        1.0  0.3073983807407785  0.44108681319630705  0.38014213053975254  1.0000
  F   F1        1.0  0.793620275799185  0.7250967684667557  0.748465484008193  1.0000
  F   F2        1.0  0.9980716172140092  0.5830523300683126  0.6931418270687573  1.0000
  F   F3        1.0  0.9239223345648497  0.00720760808326304  0.2296513000037521  1.0000
  F   F4        1.0  0.20197644061408937  0.3859619793947786  0.2875081351958215  1.0000
  F   F5        1.0  0.7404987388290465  0.8427171154762618  0.7881654120283201  1.0000
  F   F6        1.0  0.15652656788006425  0.7973803000058979  0.6207242626696825  1.0000
  F   F7        1.0  0.025545599521137774  0.3933267345710192  0.1807849825709127  1.0000
  F   F8        1.0  0.704578414093703  0.8073999783664476  0.07587651518406346  1.0000
  F   F9        1.0  0.7000182763076737  0.9795716501539573  0.7100208118790761  1.0000
  F   F10       1.0  0.2848251419272856  0.8192558877926785  0.07457075631828047  1.0000
  F   F11       1.0  0.6685873710266605  0.6543464364513056  0.8396296708378941  1.0000
  F   F12       1.0  0.3869080277218018  0.522973527549766  0.4733613124117255  1.0000
data_image179
_chemical_formula_structural       Sb2H2O4F12
_chemical_formula_sum              "Sb2 H2 O4 F12"
_cell_length_a       5.174112999999999
_cell_length_b       7.3015345668964695
_cell_length_c       8.134955459169152
_cell_angle_alpha    90.9395314512041
_cell_angle_beta     97.22151606041648
_cell_angle_gamma    91.96796560956827

_space_group_name_H-M_alt    "P 1"
_space_group_IT_number       1

loop_
  _space_group_symop_operation_xyz
  'x, y, z'

loop_
  _atom_site_type_symbol
  _atom_site_label
  _atom_site_symmetry_multiplicity
  _atom_site_fract_x
  _atom_site_fract_y
  _atom_site_fract_z
  _atom_site_occupancy
  Sb  Sb1       1.0  0.8418632235261612  0.14333519568572228  0.09109374880063115  1.0000
  Sb  Sb2       1.0  0.6641031337785535  0.12481006749840162  0.3026266281376593  1.0000
  H   H1        1.0  0.15090938357752748  0.45443788095144555  0.9014782853191718  1.0000
  H   H2        1.0  0.8706615888513625  0.18434658856131136  0.8938069329597056  1.0000
  O   O1        1.0  0.5266819831449538  0.06885551003506407  0.5739889396354556  1.0000
  O   O2        1.0  0.15289012400899082  0.5675316008273512  0.9809326243121177  1.0000
  O   O3        1.0  0.9518547706538811  0.624840073811356  0.7012735672760755  1.0000
  O   O4        1.0  0.9784425494726747  0.004664007414248772  0.588941561174579  1.0000
  F   F1        1.0  0.41589048504829407  0.006673778407275677  0.41667726647574455  1.0000
  F   F2        1.0  0.9763906266525737  0.9083192784746643  0.1103224481921643  1.0000
  F   F3        1.0  0.6610350860282779  0.48865229671355337  0.3793995270971209  1.0000
  F   F4        1.0  0.12700732238590717  0.7459600083238911  0.5636294825817458  1.0000
  F   F5        1.0  0.1314613395370543  0.6097031619865447  0.34330061043147  1.0000
  F   F6        1.0  0.24246813473291695  0.14736543945036829  0.9902205878170207  1.0000
  F   F7        1.0  0.25909999548457563  0.5847058273502626  0.6965312361426186  1.0000
  F   F8        1.0  0.8560559442266822  0.31309785519260913  0.49157586676301435  1.0000
  F   F9        1.0  0.24351161309459712  0.6585956775525119  0.42104903908330016  1.0000
  F   F10       1.0  0.958647445509996  0.5623632654896937  0.23305891209747642  1.0000
  F   F11       1.0  0.19541062665484787  0.8193528733827407  0.01254678366240114  1.0000
  F   F12       1.0  0.7565987501584459  0.17352169379591942  0.702543641498778  1.0000
data_image180
_chemical_formula_structural       Sb2H2O4F12
_chemical_formula_sum              "Sb2 H2 O4 F12"
_cell_length_a       5.174112999999999
_cell_length_b       7.3015345668964695
_cell_length_c       8.134955459169152
_cell_angle_alpha    90.9395314512041
_cell_angle_beta     97.22151606041648
_cell_angle_gamma    91.96796560956827

_space_group_name_H-M_alt    "P 1"
_space_group_IT_number       1

loop_
  _space_group_symop_operation_xyz
  'x, y, z'

loop_
  _atom_site_type_symbol
  _atom_site_label
  _atom_site_symmetry_multiplicity
  _atom_site_fract_x
  _atom_site_fract_y
  _atom_site_fract_z
  _atom_site_occupancy
  Sb  Sb1       1.0  0.8055118916090578  0.4724483462923672  0.5946310786530375  1.0000
  Sb  Sb2       1.0  0.24447976582450792  0.9632780772426486  0.9442928695934825  1.0000
  H   H1        1.0  0.2633639825799037  0.15632921404903755  0.48033301322720945  1.0000
  H   H2        1.0  0.7992476453073323  0.3446115853730589  0.9435673429397866  1.0000
  O   O1        1.0  0.9503502786392346  0.5235456900263671  0.27885100815910846  1.0000
  O   O2        1.0  0.774083103868179  0.7333643034799024  0.13081815978512168  1.0000
  O   O3        1.0  0.4999783424427733  0.6596840699785389  0.2638568196562119  1.0000
  O   O4        1.0  0.7867342865793034  0.14260212768567726  0.4616925682639703  1.0000
  F   F1        1.0  0.19469384290277958  0.08115932624787092  0.3806476917816326  1.0000
  F   F2        1.0  0.8634319361881353  0.28550646296935156  0.4911803961440455  1.0000
  F   F3        1.0  0.5830932292155921  0.8816951060434803  0.281079831533134  1.0000
  F   F4        1.0  0.1842172085889615  0.08998962030455004  0.6319719552411698  1.0000
  F   F5        1.0  0.6692450307309628  0.9528986542718485  0.7456468048039824  1.0000
  F   F6        1.0  0.7999425414018333  0.851673734607175  0.339651653310284  1.0000
  F   F7        1.0  0.586853907094337  0.6342376834363677  0.43172337631403934  1.0000
  F   F8        1.0  0.4918548436835408  0.6253369502665009  0.2563489697640762  1.0000
  F   F9        1.0  0.659878017322626  0.3108581518754363  0.1133570475212764  1.0000
  F   F10       1.0  0.35937744498005486  0.9421235063637141  0.9444947743613739  1.0000
  F   F11       1.0  0.774612234074084  0.29965402978268685  0.018628455785801634  1.0000
  F   F12       1.0  0.17450985120376572  0.35335751285310835  0.6250094515271485  1.0000
data_image181
_chemical_formula_structural       Sb2H2O4F12
_chemical_formula_sum              "Sb2 H2 O4 F12"
_cell_length_a       5.174112999999999
_cell_length_b       7.3015345668964695
_cell_length_c       8.134955459169152
_cell_angle_alpha    90.9395314512041
_cell_angle_beta     97.22151606041648
_cell_angle_gamma    91.96796560956827

_space_group_name_H-M_alt    "P 1"
_space_group_IT_number       1

loop_
  _space_group_symop_operation_xyz
  'x, y, z'

loop_
  _atom_site_type_symbol
  _atom_site_label
  _atom_site_symmetry_multiplicity
  _atom_site_fract_x
  _atom_site_fract_y
  _atom_site_fract_z
  _atom_site_occupancy
  Sb  Sb1       1.0  0.5096650616033003  0.15075119329048903  0.4089748300393694  1.0000
  Sb  Sb2       1.0  0.12320482821087353  0.23748736880770593  0.3580909716547467  1.0000
  H   H1        1.0  0.024622096039820462  0.7180358403129503  0.4115240550599992  1.0000
  H   H2        1.0  0.17143400199711323  0.37990928103681654  0.24785277619957924  1.0000
  O   O1        1.0  0.6633545561926439  0.8755362849624362  0.6344206316862255  1.0000
  O   O2        1.0  0.6562936031259596  0.11930184136144817  0.8729573128512129  1.0000
  O   O3        1.0  0.6815667818300426  0.5693644862039946  0.45854135166155174  1.0000
  O   O4        1.0  0.45549165713600814  0.4575059260459966  0.8512492417357862  1.0000
  F   F1        1.0  0.619518019258976  0.8430519979447126  0.9819661368383095  1.0000
  F   F2        1.0  0.7600378087372519  0.16707191959721968  0.4528180040360894  1.0000
  F   F3        1.0  0.9020858372095972  0.5159655120223761  0.5572403996484354  1.0000
  F   F4        1.0  0.9344095948035829  0.32576741709635826  0.7225608467124403  1.0000
  F   F5        1.0  0.7411224169190973  0.05375992530025542  0.9191950949607417  1.0000
  F   F6        1.0  0.5880795463453978  0.2874960342887789  0.8623244700720534  1.0000
  F   F7        1.0  0.23755046678707004  0.601434478565352  0.2618977152160369  1.0000
  F   F8        1.0  0.053208047058433294  0.9591061783139594  0.8594271810725331  1.0000
  F   F9        1.0  0.3153515219746623  0.7491745213628747  0.35903008229797706  1.0000
  F   F10       1.0  0.9931504921278247  0.14014260534895584  0.7285093296668492  1.0000
  F   F11       1.0  0.3692610402522405  0.27069435576413525  0.6612304190348368  1.0000
  F   F12       1.0  0.6715794326446485  0.782352568814531  0.2752110388246365  1.0000
data_image182
_chemical_formula_structural       Sb2H2O4F12
_chemical_formula_sum              "Sb2 H2 O4 F12"
_cell_length_a       5.174112999999999
_cell_length_b       7.3015345668964695
_cell_length_c       8.134955459169152
_cell_angle_alpha    90.9395314512041
_cell_angle_beta     97.22151606041648
_cell_angle_gamma    91.96796560956827

_space_group_name_H-M_alt    "P 1"
_space_group_IT_number       1

loop_
  _space_group_symop_operation_xyz
  'x, y, z'

loop_
  _atom_site_type_symbol
  _atom_site_label
  _atom_site_symmetry_multiplicity
  _atom_site_fract_x
  _atom_site_fract_y
  _atom_site_fract_z
  _atom_site_occupancy
  Sb  Sb1       1.0  0.23745441535720602  0.8882187474155216  0.5584919904067647  1.0000
  Sb  Sb2       1.0  0.9317559691262431  0.7615757780149579  0.9102624232182279  1.0000
  H   H1        1.0  0.4646868088748306  0.7521683152299374  0.23723255249205977  1.0000
  H   H2        1.0  0.9355550836771727  0.4071364130359143  0.10357878380455077  1.0000
  O   O1        1.0  0.9332940295571461  0.07897749872063287  0.874240244505927  1.0000
  O   O2        1.0  0.4782958176219836  0.2938979845494032  0.8302639719331637  1.0000
  O   O3        1.0  0.49551714200060815  0.2665870558703318  0.805564408772625  1.0000
  O   O4        1.0  0.6926039629033767  0.9036100449011428  0.9302308993646875  1.0000
  F   F1        1.0  0.9829027215018868  0.25745677459053695  0.4428686407627538  1.0000
  F   F2        1.0  0.6259079917290364  0.007464922498911619  0.5192685992806219  1.0000
  F   F3        1.0  0.07342697447165847  0.662950939964503  0.265483514405787  1.0000
  F   F4        1.0  0.9070776157896034  0.3141949591154116  0.3763510249555111  1.0000
  F   F5        1.0  0.22950285021215677  0.6571652225684375  0.7977639971068129  1.0000
  F   F6        1.0  0.5794887118972838  0.5074617490172386  0.8935610776534304  1.0000
  F   F7        1.0  0.6586015499196947  0.09469758605700918  0.08406630999525078  1.0000
  F   F8        1.0  0.22904498549178243  0.5349901300796773  0.8172094913898036  1.0000
  F   F9        1.0  0.7880959341855487  0.11091457249131054  0.6245273360109422  1.0000
  F   F10       1.0  0.2911406610182894  0.6300048994889949  0.760124743450433  1.0000
  F   F11       1.0  0.3300917709075293  0.926611070328363  0.45453524496406317  1.0000
  F   F12       1.0  0.9248264767084038  0.6062270108377561  0.39001650316640735  1.0000
data_image183
_chemical_formula_structural       Sb2H2O4F12
_chemical_formula_sum              "Sb2 H2 O4 F12"
_cell_length_a       5.174112999999999
_cell_length_b       7.3015345668964695
_cell_length_c       8.134955459169152
_cell_angle_alpha    90.9395314512041
_cell_angle_beta     97.22151606041648
_cell_angle_gamma    91.96796560956827

_space_group_name_H-M_alt    "P 1"
_space_group_IT_number       1

loop_
  _space_group_symop_operation_xyz
  'x, y, z'

loop_
  _atom_site_type_symbol
  _atom_site_label
  _atom_site_symmetry_multiplicity
  _atom_site_fract_x
  _atom_site_fract_y
  _atom_site_fract_z
  _atom_site_occupancy
  Sb  Sb1       1.0  0.7401027580490336  0.830208569233946  0.7741701184058911  1.0000
  Sb  Sb2       1.0  0.5331120087066665  0.7887930536853673  0.8148006859701127  1.0000
  H   H1        1.0  0.8572999499738216  0.46588442975189537  0.9583656538889045  1.0000
  H   H2        1.0  0.06315270392224193  0.4742197711020708  0.9868617875035852  1.0000
  O   O1        1.0  0.9675918921129778  0.8080183588317595  0.5397848575375974  1.0000
  O   O2        1.0  0.2303517411928624  0.2317893987055868  0.8292900598607957  1.0000
  O   O3        1.0  0.0710453154752031  0.3985093481023796  0.48234382894588634  1.0000
  O   O4        1.0  0.9036789003730519  0.09967984352260828  0.06311316217761487  1.0000
  F   F1        1.0  0.6953414138406515  0.2187746036797762  0.53054483467713  1.0000
  F   F2        1.0  0.24758454647962935  0.676792965939967  0.14272103740950115  1.0000
  F   F3        1.0  0.8003949979320168  0.5138738373061642  0.18223680870141834  1.0000
  F   F4        1.0  0.2562678731046617  0.9344051539519569  0.46145529142813757  1.0000
  F   F5        1.0  0.7402283491101116  0.638031642884016  0.5857040479313582  1.0000
  F   F6        1.0  0.821411877637729  0.6157414956251159  0.74805066594854  1.0000
  F   F7        1.0  0.05561034893617034  0.15267905668588355  0.16614054038655013  1.0000
  F   F8        1.0  0.0647655320353806  0.7703696570533793  0.7770095311570913  1.0000
  F   F9        1.0  0.5754761107091326  0.8516508009925019  0.2626473291020375  1.0000
  F   F10       1.0  0.07863121361879166  0.6233466851408593  0.8400131815869827  1.0000
  F   F11       1.0  0.6300239328265889  0.5772058345464757  0.4121794405509718  1.0000
  F   F12       1.0  0.6279914976621512  0.3779591955244541  0.7855223840742838  1.0000
data_image184
_chemical_formula_structural       Sb2H2O4F12
_chemical_formula_sum              "Sb2 H2 O4 F12"
_cell_length_a       5.174112999999999
_cell_length_b       7.3015345668964695
_cell_length_c       8.134955459169152
_cell_angle_alpha    90.9395314512041
_cell_angle_beta     97.22151606041648
_cell_angle_gamma    91.96796560956827

_space_group_name_H-M_alt    "P 1"
_space_group_IT_number       1

loop_
  _space_group_symop_operation_xyz
  'x, y, z'

loop_
  _atom_site_type_symbol
  _atom_site_label
  _atom_site_symmetry_multiplicity
  _atom_site_fract_x
  _atom_site_fract_y
  _atom_site_fract_z
  _atom_site_occupancy
  Sb  Sb1       1.0  0.3489529599901289  0.6839315383331268  0.22639323200564831  1.0000
  Sb  Sb2       1.0  0.7028727373690344  0.5234352953002599  0.23805763176642358  1.0000
  H   H1        1.0  0.3599106727633625  0.504872324410826  0.1698242533238954  1.0000
  H   H2        1.0  0.5727794733829796  0.6642803394934162  0.6922430786071345  1.0000
  O   O1        1.0  0.44235936703626066  0.1853262892109342  0.9133690744638443  1.0000
  O   O2        1.0  0.3716820088448003  0.7657256135717034  0.8972754285205156  1.0000
  O   O3        1.0  0.009955802466720343  0.6603808967047371  0.981183055206202  1.0000
  O   O4        1.0  0.6835741182730999  0.4024341156182345  0.40268917637877166  1.0000
  F   F1        1.0  0.48569125635549426  0.9934458697680384  0.23982926993630826  1.0000
  F   F2        1.0  0.4444226000487106  0.19912945572286844  0.6411482205730863  1.0000
  F   F3        1.0  0.0261952702421695  0.9334958972176537  0.7792789841769263  1.0000
  F   F4        1.0  0.8648778067436069  0.3329184365065885  0.08705842588096857  1.0000
  F   F5        1.0  0.5246723364107311  0.5524812205694616  0.09895864070858806  1.0000
  F   F6        1.0  0.9245230725500733  0.8689426591154188  0.5845592399127781  1.0000
  F   F7        1.0  0.06537380116060376  0.4878771783260163  0.4450010267755715  1.0000
  F   F8        1.0  0.057374519761651754  0.2056605352263432  0.7824323839740828  1.0000
  F   F9        1.0  0.7399634231405798  0.1643244286533445  0.9891595540975686  1.0000
  F   F10       1.0  0.07419350095005939  0.6214464315271471  0.6391100698674563  1.0000
  F   F11       1.0  0.871264751367562  0.7228131185147504  0.5989304722170345  1.0000
  F   F12       1.0  0.9419608476455323  0.6943051972193643  0.7464614431955852  1.0000
data_image185
_chemical_formula_structural       Sb2H2O4F12
_chemical_formula_sum              "Sb2 H2 O4 F12"
_cell_length_a       5.174112999999999
_cell_length_b       7.3015345668964695
_cell_length_c       8.134955459169152
_cell_angle_alpha    90.9395314512041
_cell_angle_beta     97.22151606041648
_cell_angle_gamma    91.96796560956827

_space_group_name_H-M_alt    "P 1"
_space_group_IT_number       1

loop_
  _space_group_symop_operation_xyz
  'x, y, z'

loop_
  _atom_site_type_symbol
  _atom_site_label
  _atom_site_symmetry_multiplicity
  _atom_site_fract_x
  _atom_site_fract_y
  _atom_site_fract_z
  _atom_site_occupancy
  Sb  Sb1       1.0  0.8751001763739623  0.25138876769779017  0.6313759812983335  1.0000
  Sb  Sb2       1.0  0.10945830863784067  0.1806811794421037  0.6763951289467514  1.0000
  H   H1        1.0  0.43122749123722315  0.9028512679506093  0.6088748858855979  1.0000
  H   H2        1.0  0.16770774498581886  0.7651446653762832  0.3513843446271494  1.0000
  O   O1        1.0  0.6155978122260422  0.011812000768259168  0.28713620896451175  1.0000
  O   O2        1.0  0.3692439584992826  0.06431378237903118  0.5504157858667895  1.0000
  O   O3        1.0  0.6341408350272104  0.20144496159628034  0.3703416745411232  1.0000
  O   O4        1.0  0.09125102718826383  0.7868863511830568  0.6726467330008745  1.0000
  F   F1        1.0  0.09812702983617783  0.7969071550760418  0.41559906338807195  1.0000
  F   F2        1.0  0.9709088756644633  0.5302824421669357  0.030503347399644554  1.0000
  F   F3        1.0  0.3342118691653013  0.6475767985684797  0.8870083091314882  1.0000
  F   F4        1.0  0.7548680658219382  0.30304154053737875  0.831866861670278  1.0000
  F   F5        1.0  0.7430343679152429  0.5062614093767479  0.5125106105624582  1.0000
  F   F6        1.0  0.027165439212694764  0.8207753838505596  0.09724547015503049  1.0000
  F   F7        1.0  0.7958298019366339  0.5842414750077296  0.47693183030060027  1.0000
  F   F8        1.0  0.3724247831851244  0.39025221968768165  0.12647765397559851  1.0000
  F   F9        1.0  0.8808427406474948  0.45625898451544344  0.6303701555298176  1.0000
  F   F10       1.0  0.33075935845045024  0.20366435145842843  0.4773605262162164  1.0000
  F   F11       1.0  0.6550408654729836  0.9003005192244018  0.9512116010591853  1.0000
  F   F12       1.0  0.057281782384961843  0.7154261292889714  0.6417732902918942  1.0000
data_image186
_chemical_formula_structural       Sb2H2O4F12
_chemical_formula_sum              "Sb2 H2 O4 F12"
_cell_length_a       5.174112999999999
_cell_length_b       7.3015345668964695
_cell_length_c       8.134955459169152
_cell_angle_alpha    90.9395314512041
_cell_angle_beta     97.22151606041648
_cell_angle_gamma    91.96796560956827

_space_group_name_H-M_alt    "P 1"
_space_group_IT_number       1

loop_
  _space_group_symop_operation_xyz
  'x, y, z'

loop_
  _atom_site_type_symbol
  _atom_site_label
  _atom_site_symmetry_multiplicity
  _atom_site_fract_x
  _atom_site_fract_y
  _atom_site_fract_z
  _atom_site_occupancy
  Sb  Sb1       1.0  0.35227591439615935  0.9787326623481931  0.45796638062165584  1.0000
  Sb  Sb2       1.0  0.6107896568428259  0.5959342185860805  0.10785255843074992  1.0000
  H   H1        1.0  0.5476230597123504  0.0874870129628107  0.42492068389765336  1.0000
  H   H2        1.0  0.08550697611644864  0.20556813781149685  0.08461450808681548  1.0000
  O   O1        1.0  0.9620922507019714  0.6778894576127641  0.7482994809979573  1.0000
  O   O2        1.0  0.10954676987603307  0.6519702670047991  0.17874004354234785  1.0000
  O   O3        1.0  0.11355447373352945  0.9086590809747577  0.022844377905130386  1.0000
  O   O4        1.0  0.6110730016953312  0.5644132260058541  0.7655220171436667  1.0000
  F   F1        1.0  0.19257961167022586  0.9399779497180134  0.26468458969611675  1.0000
  F   F2        1.0  0.6275966715475079  0.8331437860615551  0.4071996316779405  1.0000
  F   F3        1.0  0.14515258325263858  0.5091754997265525  0.7872562321135774  1.0000
  F   F4        1.0  0.9311539336922579  0.836257040653436  0.30459264654200524  1.0000
  F   F5        1.0  0.30184766184538603  0.1792022488079965  0.05815571129278396  1.0000
  F   F6        1.0  0.4229638185352087  0.5866698701865971  0.5729180772323161  1.0000
  F   F7        1.0  0.3876497206510976  0.5828600468230434  0.5432695189083461  1.0000
  F   F8        1.0  0.04777542781084776  0.1761103915341664  0.13752355333417654  1.0000
  F   F9        1.0  0.011837786383694038  0.4833672698296141  0.6112908395589329  1.0000
  F   F10       1.0  0.5840475272270851  0.7939004324434791  0.5514549306535628  1.0000
  F   F11       1.0  0.9872070861820248  0.8649841517290042  0.40480777763877995  1.0000
  F   F12       1.0  0.021616853249724954  0.9716486627003178  0.8472657765960321  1.0000
data_image187
_chemical_formula_structural       Sb2H2O4F12
_chemical_formula_sum              "Sb2 H2 O4 F12"
_cell_length_a       5.174112999999999
_cell_length_b       7.3015345668964695
_cell_length_c       8.134955459169152
_cell_angle_alpha    90.9395314512041
_cell_angle_beta     97.22151606041648
_cell_angle_gamma    91.96796560956827

_space_group_name_H-M_alt    "P 1"
_space_group_IT_number       1

loop_
  _space_group_symop_operation_xyz
  'x, y, z'

loop_
  _atom_site_type_symbol
  _atom_site_label
  _atom_site_symmetry_multiplicity
  _atom_site_fract_x
  _atom_site_fract_y
  _atom_site_fract_z
  _atom_site_occupancy
  Sb  Sb1       1.0  0.4916255946154706  0.9038679579389282  0.38354288075788645  1.0000
  Sb  Sb2       1.0  0.8757646882440895  0.8023193234866994  0.5153852673247457  1.0000
  H   H1        1.0  0.1272084261290729  0.8100705904653296  0.9282072427035928  1.0000
  H   H2        1.0  0.8308973331004381  0.8601485068211332  0.9989429350243881  1.0000
  O   O1        1.0  0.20678250025957823  0.5325125696545001  0.6749645036179572  1.0000
  O   O2        1.0  0.1225015006493777  0.49796994001371786  0.3865663557080552  1.0000
  O   O3        1.0  0.5422797618666664  0.08572692389134318  0.7873156862333417  1.0000
  O   O4        1.0  0.054313039290718734  0.6047977846174035  0.858923573512584  1.0000
  F   F1        1.0  0.422142852563411  0.9044805131852627  0.3250190173275769  1.0000
  F   F2        1.0  0.89602161035873  0.6442958487896249  0.5345871424651705  1.0000
  F   F3        1.0  0.17991844983771443  0.7168996818363667  0.20240627345629036  1.0000
  F   F4        1.0  0.12805612065130845  0.8351208022213541  0.7981905081542209  1.0000
  F   F5        1.0  0.6325409826822579  0.2215807163156569  0.28930924538872205  1.0000
  F   F6        1.0  0.2344717849045992  0.3246432344894856  0.1837929857429117  1.0000
  F   F7        1.0  0.3755010045133531  0.7536850540782325  0.5972046126553323  1.0000
  F   F8        1.0  0.3486446551978588  0.9714640228630742  0.1641562770237215  1.0000
  F   F9        1.0  0.5838828373962315  0.9570102038851473  0.5042582552414387  1.0000
  F   F10       1.0  0.6066007310946588  0.3407417165581137  0.5875298749306239  1.0000
  F   F11       1.0  0.117084535466347  0.3084387737108045  0.12117884316830896  1.0000
  F   F12       1.0  0.6871573214593809  0.8128750359173864  0.966399124066811  1.0000
data_image188
_chemical_formula_structural       Sb2H2O4F12
_chemical_formula_sum              "Sb2 H2 O4 F12"
_cell_length_a       5.174112999999999
_cell_length_b       7.3015345668964695
_cell_length_c       8.134955459169152
_cell_angle_alpha    90.9395314512041
_cell_angle_beta     97.22151606041648
_cell_angle_gamma    91.96796560956827

_space_group_name_H-M_alt    "P 1"
_space_group_IT_number       1

loop_
  _space_group_symop_operation_xyz
  'x, y, z'

loop_
  _atom_site_type_symbol
  _atom_site_label
  _atom_site_symmetry_multiplicity
  _atom_site_fract_x
  _atom_site_fract_y
  _atom_site_fract_z
  _atom_site_occupancy
  Sb  Sb1       1.0  0.8179819154320285  0.5697179152120952  0.304961342299066  1.0000
  Sb  Sb2       1.0  0.7833558224665467  0.6782090447950395  0.19086327048717067  1.0000
  H   H1        1.0  0.2541043860837817  0.4818347757682204  0.4389233237266126  1.0000
  H   H2        1.0  0.7777792061679065  0.976039248984307  0.33366014377679676  1.0000
  O   O1        1.0  0.9905597198521718  0.38253826269647107  0.09536403918173164  1.0000
  O   O2        1.0  0.4675191225251183  0.9475951141794212  0.08044244407210499  1.0000
  O   O3        1.0  0.09611858439166099  0.45068368257489055  0.011882950202561915  1.0000
  O   O4        1.0  0.20179673662642017  0.7407539131236263  0.09461820195429027  1.0000
  F   F1        1.0  0.40756230847910047  0.9551405999809504  0.9182695798808709  1.0000
  F   F2        1.0  0.19856638679630123  0.028350071544991806  0.21252597216516733  1.0000
  F   F3        1.0  0.6612686202861369  0.051484494761098176  0.31065901333931834  1.0000
  F   F4        1.0  0.1690143595333211  0.0582606280077016  0.5667966994806193  1.0000
  F   F5        1.0  0.8842666430864483  0.45835548592731357  0.24334785743121756  1.0000
  F   F6        1.0  0.7074922719039023  0.9406074027065188  0.6638605678454041  1.0000
  F   F7        1.0  0.6640482629882172  0.08558298804564402  0.9580999053723644  1.0000
  F   F8        1.0  0.6331869470886886  0.9376243782025995  0.04908395936945453  1.0000
  F   F9        1.0  0.10096596254152246  0.764687709568534  0.12189040915109217  1.0000
  F   F10       1.0  0.6989693545910995  0.8397501031286083  0.5283474321186077  1.0000
  F   F11       1.0  0.5166693243590998  0.8815019328321796  0.7773466162616387  1.0000
  F   F12       1.0  0.5040721748082433  0.2412287254119292  0.38569728046422824  1.0000
data_image189
_chemical_formula_structural       Sb2H2O4F12
_chemical_formula_sum              "Sb2 H2 O4 F12"
_cell_length_a       5.174112999999999
_cell_length_b       7.3015345668964695
_cell_length_c       8.134955459169152
_cell_angle_alpha    90.9395314512041
_cell_angle_beta     97.22151606041648
_cell_angle_gamma    91.96796560956827

_space_group_name_H-M_alt    "P 1"
_space_group_IT_number       1

loop_
  _space_group_symop_operation_xyz
  'x, y, z'

loop_
  _atom_site_type_symbol
  _atom_site_label
  _atom_site_symmetry_multiplicity
  _atom_site_fract_x
  _atom_site_fract_y
  _atom_site_fract_z
  _atom_site_occupancy
  Sb  Sb1       1.0  0.47602199332322925  0.379387854700326  0.5751307750033448  1.0000
  Sb  Sb2       1.0  0.6934702563594328  0.3425944126165632  0.911364801984746  1.0000
  H   H1        1.0  0.8318237848579884  0.5426107970997691  0.6774487016718922  1.0000
  H   H2        1.0  0.6771750804036856  0.03790720645338297  0.26686903135851026  1.0000
  O   O1        1.0  0.22707056254148483  0.18065433809533715  0.10286371887195855  1.0000
  O   O2        1.0  0.4123663456412032  0.8633542608004063  0.6701883049681783  1.0000
  O   O3        1.0  0.46908704238012433  0.829928151331842  0.4800633303821087  1.0000
  O   O4        1.0  0.8253359193331562  0.23238665159442462  0.9770022600423545  1.0000
  F   F1        1.0  0.16559011721983552  0.06595042068511248  0.07156399171799421  1.0000
  F   F2        1.0  0.31076919464976527  0.6223926908278372  0.07908301125280559  1.0000
  F   F3        1.0  0.1833325084298849  0.5541574762319215  0.9056971467798576  1.0000
  F   F4        1.0  0.8404177019256167  0.8316743300383678  0.7721760753775015  1.0000
  F   F5        1.0  0.18514522188343108  0.005266487482003868  0.5248093012341997  1.0000
  F   F6        1.0  0.09225030313245952  0.3461699443869293  0.1869026841595769  1.0000
  F   F7        1.0  0.35293543234001845  0.32871188735589385  0.13245328985794913  1.0000
  F   F8        1.0  0.056439056526869535  0.47414787058369257  0.5027693855226971  1.0000
  F   F9        1.0  0.9490125327720307  0.7967801007034723  0.10180071744252928  1.0000
  F   F10       1.0  0.03684463234822033  0.9398581949062645  0.9540284538816195  1.0000
  F   F11       1.0  0.3542557757573377  0.4870411324627639  0.7140256833808962  1.0000
  F   F12       1.0  0.20031763440056238  0.23117455188184977  0.7239893496735021  1.0000
data_image190
_chemical_formula_structural       Sb2H2O4F12
_chemical_formula_sum              "Sb2 H2 O4 F12"
_cell_length_a       5.174112999999999
_cell_length_b       7.3015345668964695
_cell_length_c       8.134955459169152
_cell_angle_alpha    90.9395314512041
_cell_angle_beta     97.22151606041648
_cell_angle_gamma    91.96796560956827

_space_group_name_H-M_alt    "P 1"
_space_group_IT_number       1

loop_
  _space_group_symop_operation_xyz
  'x, y, z'

loop_
  _atom_site_type_symbol
  _atom_site_label
  _atom_site_symmetry_multiplicity
  _atom_site_fract_x
  _atom_site_fract_y
  _atom_site_fract_z
  _atom_site_occupancy
  Sb  Sb1       1.0  0.6493485262035392  0.7159723564109299  0.011648180261545349  1.0000
  Sb  Sb2       1.0  0.49789492461422924  0.12110135240345699  0.554074315878097  1.0000
  H   H1        1.0  0.1379596907645464  0.1187248305650428  0.26374061399656057  1.0000
  H   H2        1.0  0.6907728789374232  0.6041157994186506  0.5264680132968351  1.0000
  O   O1        1.0  0.7187320052180439  0.8486930382205173  0.654463303158991  1.0000
  O   O2        1.0  0.8526692709419876  0.9747804286307655  0.44931947463192046  1.0000
  O   O3        1.0  0.8628371296217665  0.1601877007051371  0.631229980266653  1.0000
  O   O4        1.0  0.596712469268823  0.3403982033196371  0.264868137659505  1.0000
  F   F1        1.0  0.46981564396992326  0.8556124630849808  0.03422814980149269  1.0000
  F   F2        1.0  0.45924221392488107  0.8077068490674719  0.6459720904240385  1.0000
  F   F3        1.0  0.7358728724066168  0.2477402767399326  0.2681801744038239  1.0000
  F   F4        1.0  0.45508122618775815  0.9071376290703483  0.33956698066322133  1.0000
  F   F5        1.0  0.2411888991482556  0.9620745715219527  0.8701880660737515  1.0000
  F   F6        1.0  0.3777795957867056  0.08468677022028714  0.4042489370331168  1.0000
  F   F7        1.0  0.5499462261795998  0.5923985221306793  0.3319654784281738  1.0000
  F   F8        1.0  0.49450816586613655  0.6880534903757507  0.005329811363480985  1.0000
  F   F9        1.0  0.05196271860040724  0.7565825614146888  0.5774321640201379  1.0000
  F   F10       1.0  0.5976015148626175  0.34101383545203134  0.648597192572197  1.0000
  F   F11       1.0  0.916974907495387  0.5822832088306313  0.4455097103782464  1.0000
  F   F12       1.0  0.43867319550554384  0.4708189502125606  0.03922641684766859  1.0000
data_image191
_chemical_formula_structural       Sb2H2O4F12
_chemical_formula_sum              "Sb2 H2 O4 F12"
_cell_length_a       5.174112999999999
_cell_length_b       7.3015345668964695
_cell_length_c       8.134955459169152
_cell_angle_alpha    90.9395314512041
_cell_angle_beta     97.22151606041648
_cell_angle_gamma    91.96796560956827

_space_group_name_H-M_alt    "P 1"
_space_group_IT_number       1

loop_
  _space_group_symop_operation_xyz
  'x, y, z'

loop_
  _atom_site_type_symbol
  _atom_site_label
  _atom_site_symmetry_multiplicity
  _atom_site_fract_x
  _atom_site_fract_y
  _atom_site_fract_z
  _atom_site_occupancy
  Sb  Sb1       1.0  0.1039693962666206  0.08755232188559603  0.08255311691755196  1.0000
  Sb  Sb2       1.0  0.10833680363430176  0.07047020014488226  0.5172864047344774  1.0000
  H   H1        1.0  0.10467813443392515  0.6057965760119259  0.9696990735592408  1.0000
  H   H2        1.0  0.21716298488900065  0.3847381491214037  0.6536131120519713  1.0000
  O   O1        1.0  0.43857520760502666  0.7772253551665926  0.6351190526038408  1.0000
  O   O2        1.0  0.7563429573783651  0.07451761461561546  0.7291863578138873  1.0000
  O   O3        1.0  0.10322335886303335  0.26235413510585204  0.6695542772067711  1.0000
  O   O4        1.0  0.16628051531733945  0.2948181107349228  0.6201636315090582  1.0000
  F   F1        1.0  0.05188744096085429  0.2741092268843204  0.9901631273096427  1.0000
  F   F2        1.0  0.45386880479054525  0.31940610500168987  0.37060402406495996  1.0000
  F   F3        1.0  0.4378306425642222  0.398070934752468  0.7573792728362605  1.0000
  F   F4        1.0  0.49101091193733737  0.5104013546115311  0.6185064126621  1.0000
  F   F5        1.0  0.21199155878275633  0.7872801782796159  0.9521044308930868  1.0000
  F   F6        1.0  0.4390120531897992  0.3268212869297713  0.9498294114600867  1.0000
  F   F7        1.0  0.2590818121097982  0.03067906358046457  0.03600896100397222  1.0000
  F   F8        1.0  0.9589787214063108  0.10151361020689365  0.7321948722819798  1.0000
  F   F9        1.0  0.027940521671553142  0.9912427010713145  0.6776807823625859  1.0000
  F   F10       1.0  0.7027391558949603  0.09268254967173561  0.5773145269486122  1.0000
  F   F11       1.0  0.6435997674270766  0.9595647717214888  0.9110896284109913  1.0000
  F   F12       1.0  0.3195510368732357  0.9264121138257906  0.1519811466569081  1.0000
data_image192
_chemical_formula_structural       Sb2H2O4F12
_chemical_formula_sum              "Sb2 H2 O4 F12"
_cell_length_a       5.174112999999999
_cell_length_b       7.3015345668964695
_cell_length_c       8.134955459169152
_cell_angle_alpha    90.9395314512041
_cell_angle_beta     97.22151606041648
_cell_angle_gamma    91.96796560956827

_space_group_name_H-M_alt    "P 1"
_space_group_IT_number       1

loop_
  _space_group_symop_operation_xyz
  'x, y, z'

loop_
  _atom_site_type_symbol
  _atom_site_label
  _atom_site_symmetry_multiplicity
  _atom_site_fract_x
  _atom_site_fract_y
  _atom_site_fract_z
  _atom_site_occupancy
  Sb  Sb1       1.0  0.2358326682006009  0.3377309779461939  0.4735993675130885  1.0000
  Sb  Sb2       1.0  0.15644287690520287  0.8716097080405234  0.42921089445007965  1.0000
  H   H1        1.0  0.9477135529741645  0.3880078620277345  0.9877666483844223  1.0000
  H   H2        1.0  0.6688537024892867  0.353358858381398  0.0035515999188646674  1.0000
  O   O1        1.0  0.8422727163415402  0.07668252047733404  0.5371850555529818  1.0000
  O   O2        1.0  0.46357264381367713  0.12765143549768254  0.5785512385191396  1.0000
  O   O3        1.0  0.13782054430339485  0.8445121460244991  0.970196908689104  1.0000
  O   O4        1.0  0.875909937574761  0.9643736225552857  0.526748042088002  1.0000
  F   F1        1.0  0.790206084959209  0.44498235918581486  0.9727181164780632  1.0000
  F   F2        1.0  0.4976479150354862  0.5002700659970287  0.4427911884558853  1.0000
  F   F3        1.0  0.9498248768504709  0.783985351503361  0.9060649949824437  1.0000
  F   F4        1.0  0.8621871576760896  0.42560407045675674  0.9508276606793515  1.0000
  F   F5        1.0  0.5241454432252795  0.9211858307244256  0.729996458045207  1.0000
  F   F6        1.0  0.30617243819870055  0.3379570714896545  0.580667739151977  1.0000
  F   F7        1.0  0.4302681948756799  0.881230542960111  0.6559603117784718  1.0000
  F   F8        1.0  0.6791420024819672  0.4431529714347562  0.4822656086762436  1.0000
  F   F9        1.0  0.9166644975048257  0.44607720914063975  0.8178966241248418  1.0000
  F   F10       1.0  0.6767332069575787  0.8273320756852627  0.5551408884930424  1.0000
  F   F11       1.0  0.5993684264976764  0.15119402540585725  0.725888889428461  1.0000
  F   F12       1.0  0.4330022409267258  0.7231039491016418  0.6167931123054586  1.0000
data_image193
_chemical_formula_structural       Sb2H2O4F12
_chemical_formula_sum              "Sb2 H2 O4 F12"
_cell_length_a       5.174112999999999
_cell_length_b       7.3015345668964695
_cell_length_c       8.134955459169152
_cell_angle_alpha    90.9395314512041
_cell_angle_beta     97.22151606041648
_cell_angle_gamma    91.96796560956827

_space_group_name_H-M_alt    "P 1"
_space_group_IT_number       1

loop_
  _space_group_symop_operation_xyz
  'x, y, z'

loop_
  _atom_site_type_symbol
  _atom_site_label
  _atom_site_symmetry_multiplicity
  _atom_site_fract_x
  _atom_site_fract_y
  _atom_site_fract_z
  _atom_site_occupancy
  Sb  Sb1       1.0  0.16251837118761614  0.9318497060376103  0.858724148478359  1.0000
  Sb  Sb2       1.0  0.4646135565417353  0.43913796364313384  0.6590143121429719  1.0000
  H   H1        1.0  0.22793249785900116  0.860500184353441  0.020367380304378457  1.0000
  H   H2        1.0  0.8976441635750234  0.4978750143200159  0.25148799852468073  1.0000
  O   O1        1.0  0.5749808754771948  0.0025129802961600944  0.18418013968039304  1.0000
  O   O2        1.0  0.6024951435392722  0.0726721397950314  0.29627411521505564  1.0000
  O   O3        1.0  0.8221468479605392  0.7952259813901037  0.6352434665895998  1.0000
  O   O4        1.0  0.4350064006866887  0.05036163987824693  0.18212448409758508  1.0000
  F   F1        1.0  0.058547067921608686  0.13702822499908507  0.9865988962119445  1.0000
  F   F2        1.0  0.8088244135724381  0.05048695666482672  0.7024091794737615  1.0000
  F   F3        1.0  0.6633794994559139  0.9628471681498922  0.8079382498981431  1.0000
  F   F4        1.0  0.2661939808749594  0.34106590725059505  0.5063921237597242  1.0000
  F   F5        1.0  0.4435883769765496  0.9790512673789635  0.9225724654970691  1.0000
  F   F6        1.0  0.6862989098299295  0.4554560612887144  0.7463461462175474  1.0000
  F   F7        1.0  0.7851486895233393  0.19846528468769975  0.4043960126291495  1.0000
  F   F8        1.0  0.5476161050610244  0.25089162179938285  0.9726691312971525  1.0000
  F   F9        1.0  0.6819920964480843  0.9680305713263806  0.39704987953882664  1.0000
  F   F10       1.0  0.023613428696990013  0.19221301208017394  0.08954813447780907  1.0000
  F   F11       1.0  0.35107398617765284  0.316906473650306  0.33413830734207295  1.0000
  F   F12       1.0  0.5501568722447701  0.2801367755746469  0.07915558753302321  1.0000
data_image194
_chemical_formula_structural       Sb2H2O4F12
_chemical_formula_sum              "Sb2 H2 O4 F12"
_cell_length_a       5.174112999999999
_cell_length_b       7.3015345668964695
_cell_length_c       8.134955459169152
_cell_angle_alpha    90.9395314512041
_cell_angle_beta     97.22151606041648
_cell_angle_gamma    91.96796560956827

_space_group_name_H-M_alt    "P 1"
_space_group_IT_number       1

loop_
  _space_group_symop_operation_xyz
  'x, y, z'

loop_
  _atom_site_type_symbol
  _atom_site_label
  _atom_site_symmetry_multiplicity
  _atom_site_fract_x
  _atom_site_fract_y
  _atom_site_fract_z
  _atom_site_occupancy
  Sb  Sb1       1.0  0.18752756295725703  0.3159074895083904  0.4563227629259927  1.0000
  Sb  Sb2       1.0  0.9063482126803137  0.928545346770079  0.8400463229627348  1.0000
  H   H1        1.0  0.25822074618190527  0.8119860575534403  0.5981298286933452  1.0000
  H   H2        1.0  0.7656911686062813  0.4434626414440572  0.45123707386665046  1.0000
  O   O1        1.0  0.6552001147065312  0.12476808115025051  0.9616131220245734  1.0000
  O   O2        1.0  0.7248397112125531  0.5586104244575836  0.25179280660813674  1.0000
  O   O3        1.0  0.7441943803569302  0.8348208530223928  0.7242511004442349  1.0000
  O   O4        1.0  0.2803303461987525  0.34986163218854927  0.7177834310568869  1.0000
  F   F1        1.0  0.10624701995402575  0.5225449774879962  0.0905172391794622  1.0000
  F   F2        1.0  0.6981314888980705  0.9364441162033472  0.010046607378171757  1.0000
  F   F3        1.0  0.7631255853921175  0.4115299149416387  0.7365295994095504  1.0000
  F   F4        1.0  0.9823358521098271  0.2553853154004173  0.0828880537301302  1.0000
  F   F5        1.0  0.24133096635341644  0.348048796528019  0.8817538677951688  1.0000
  F   F6        1.0  0.3836086788214743  0.03668861836194992  0.7165918732061982  1.0000
  F   F7        1.0  0.9025007885647938  0.6275935630255844  0.023278543914784677  1.0000
  F   F8        1.0  0.025735547300428152  0.9552642738199211  0.9064410935388878  1.0000
  F   F9        1.0  0.18771470490901265  0.9892101642326452  0.21367804997134954  1.0000
  F   F10       1.0  0.687832310795784  0.4530549893970601  0.08310513227479532  1.0000
  F   F11       1.0  0.3910712479992071  0.18526834958174732  0.3343247835873626  1.0000
  F   F12       1.0  0.14698978787509986  0.2330412819283083  0.7114836416440085  1.0000
data_image195
_chemical_formula_structural       Sb2H2O4F12
_chemical_formula_sum              "Sb2 H2 O4 F12"
_cell_length_a       5.174112999999999
_cell_length_b       7.3015345668964695
_cell_length_c       8.134955459169152
_cell_angle_alpha    90.9395314512041
_cell_angle_beta     97.22151606041648
_cell_angle_gamma    91.96796560956827

_space_group_name_H-M_alt    "P 1"
_space_group_IT_number       1

loop_
  _space_group_symop_operation_xyz
  'x, y, z'

loop_
  _atom_site_type_symbol
  _atom_site_label
  _atom_site_symmetry_multiplicity
  _atom_site_fract_x
  _atom_site_fract_y
  _atom_site_fract_z
  _atom_site_occupancy
  Sb  Sb1       1.0  0.04426553286612034  0.454581394289562  0.003425339251407422  1.0000
  Sb  Sb2       1.0  0.7939135917695239  0.1280508675490637  0.2509076102869585  1.0000
  H   H1        1.0  0.2379439133219421  0.9557112079346552  0.987710299254104  1.0000
  H   H2        1.0  0.9993953472003341  0.40334891923703253  0.6398738033603877  1.0000
  O   O1        1.0  0.2794262426905334  0.09822297903883737  0.28657749498961493  1.0000
  O   O2        1.0  0.23014582612086087  0.20998521277215332  0.3394451458007097  1.0000
  O   O3        1.0  0.5642357894685119  0.16974887883407064  0.8518617589143105  1.0000
  O   O4        1.0  0.731473152001854  0.21635000343667343  0.002360178856179118  1.0000
  F   F1        1.0  0.5389942638576031  0.49676841381005943  0.5503456851001829  1.0000
  F   F2        1.0  0.4211217326519545  0.8204538095451426  0.4032379016280174  1.0000
  F   F3        1.0  0.24062553234398365  0.745739146892447  0.21449824690353125  1.0000
  F   F4        1.0  0.8035452789044939  0.3355589509174024  0.8579396039131097  1.0000
  F   F5        1.0  0.5899032037705183  0.30291927384678274  0.34146972508847284  1.0000
  F   F6        1.0  0.5038844461087137  0.7095675960881636  0.4074396665673703  1.0000
  F   F7        1.0  0.6969314070884138  0.6956462106027175  0.05615483368455898  1.0000
  F   F8        1.0  0.2845649654045701  0.8148558986540593  0.3307980691315606  1.0000
  F   F9        1.0  0.25513228040290414  0.31487123836996034  0.6161142570490483  1.0000
  F   F10       1.0  0.6559538752771914  0.9696837806259282  0.9609909424907528  1.0000
  F   F11       1.0  0.43544591104000574  0.6895556161907734  0.13915820722468197  1.0000
  F   F12       1.0  0.7136773609290685  0.7852647092659026  0.2220202167518437  1.0000
data_image196
_chemical_formula_structural       Sb2H2O4F12
_chemical_formula_sum              "Sb2 H2 O4 F12"
_cell_length_a       5.174112999999999
_cell_length_b       7.3015345668964695
_cell_length_c       8.134955459169152
_cell_angle_alpha    90.9395314512041
_cell_angle_beta     97.22151606041648
_cell_angle_gamma    91.96796560956827

_space_group_name_H-M_alt    "P 1"
_space_group_IT_number       1

loop_
  _space_group_symop_operation_xyz
  'x, y, z'

loop_
  _atom_site_type_symbol
  _atom_site_label
  _atom_site_symmetry_multiplicity
  _atom_site_fract_x
  _atom_site_fract_y
  _atom_site_fract_z
  _atom_site_occupancy
  Sb  Sb1       1.0  0.029706235567573458  0.7901938083668938  0.3598868475673953  1.0000
  Sb  Sb2       1.0  0.07592509954702109  0.9009051977584477  0.3278279958758503  1.0000
  H   H1        1.0  0.23841527942568064  0.2304961879272014  0.0013068227708572522  1.0000
  H   H2        1.0  0.7302954779006541  0.04088202817365527  0.6927403593435884  1.0000
  O   O1        1.0  0.4873664095066488  0.43360957902041264  0.2531461747130379  1.0000
  O   O2        1.0  0.8321874293033034  0.02122028375742957  0.08011700119823217  1.0000
  O   O3        1.0  0.06073220924008638  0.02912457857746631  0.6018896691966802  1.0000
  O   O4        1.0  0.08782139059621841  0.20240324959740974  0.2004085190128535  1.0000
  F   F1        1.0  0.8744322266429663  0.17334620817564428  0.2278821220388636  1.0000
  F   F2        1.0  0.1415651873976458  0.4246892209921498  0.27312611232628115  1.0000
  F   F3        1.0  0.6211849853862077  0.733107311592903  0.8389374419348314  1.0000
  F   F4        1.0  0.4068978621507995  0.6402064711982121  0.6107701345463283  1.0000
  F   F5        1.0  0.8277583268936723  0.21361686650197953  0.5767435147370179  1.0000
  F   F6        1.0  0.1938281178008765  0.5888719338690862  0.8190757238771766  1.0000
  F   F7        1.0  0.32158946245908737  0.7429430551128462  0.683356084060506  1.0000
  F   F8        1.0  0.7335884016938508  0.6381147660140414  0.22838370641693473  1.0000
  F   F9        1.0  0.4981628705863841  0.8350537179940147  0.9822323611588217  1.0000
  F   F10       1.0  0.2691671308130026  0.3350219381391071  0.3252629431663081  1.0000
  F   F11       1.0  0.4385615546416375  0.2290651771472767  0.013135116634657606  1.0000
  F   F12       1.0  0.5739618544066616  0.999961803201586  0.2054826089879498  1.0000
data_image197
_chemical_formula_structural       Sb2H2O4F12
_chemical_formula_sum              "Sb2 H2 O4 F12"
_cell_length_a       5.174112999999999
_cell_length_b       7.3015345668964695
_cell_length_c       8.134955459169152
_cell_angle_alpha    90.9395314512041
_cell_angle_beta     97.22151606041648
_cell_angle_gamma    91.96796560956827

_space_group_name_H-M_alt    "P 1"
_space_group_IT_number       1

loop_
  _space_group_symop_operation_xyz
  'x, y, z'

loop_
  _atom_site_type_symbol
  _atom_site_label
  _atom_site_symmetry_multiplicity
  _atom_site_fract_x
  _atom_site_fract_y
  _atom_site_fract_z
  _atom_site_occupancy
  Sb  Sb1       1.0  0.5926503045484424  0.08344894611946074  0.18249182092404226  1.0000
  Sb  Sb2       1.0  0.4458508652751334  0.9574550900624672  0.9791521311271936  1.0000
  H   H1        1.0  0.9735461855307221  0.5630365412216634  0.5505145610222826  1.0000
  H   H2        1.0  0.3660641345195472  0.3079649405553937  0.6760884232353419  1.0000
  O   O1        1.0  0.6718269190751016  0.8646020442101872  0.5538475918583572  1.0000
  O   O2        1.0  0.3820972121320665  0.7603376131155528  0.9985304889269173  1.0000
  O   O3        1.0  0.2909620115533471  0.344679280067794  0.2165117645636201  1.0000
  O   O4        1.0  0.710345087107271  0.9167443175392691  0.8595124196726829  1.0000
  F   F1        1.0  0.34053476387634873  0.34136871341615915  0.5609697684412822  1.0000
  F   F2        1.0  0.92021482103155  0.7931028703751508  0.960090270586079  1.0000
  F   F3        1.0  0.6455598475877196  0.9451335968915373  0.29051273805089295  1.0000
  F   F4        1.0  0.6654503730242141  0.19990630691336264  0.6647325841477141  1.0000
  F   F5        1.0  0.14469199371524155  0.9916607097256929  0.9127362608312524  1.0000
  F   F6        1.0  0.5273041410837322  0.40351627353811637  0.28659848135430366  1.0000
  F   F7        1.0  0.5047063784440979  0.531120689236559  0.34341894240060356  1.0000
  F   F8        1.0  0.008141283877193928  0.823383707087487  0.5645237517310306  1.0000
  F   F9        1.0  0.5550547264429042  0.555651937102084  0.5090804113424383  1.0000
  F   F10       1.0  0.04483993910253048  0.572843125090003  0.6738918519695289  1.0000
  F   F11       1.0  0.6373663105041487  0.4733168074162677  0.09037259296746925  1.0000
  F   F12       1.0  0.9167657596099161  0.7392891352064908  0.19364647060865536  1.0000
data_image198
_chemical_formula_structural       Sb2H2O4F12
_chemical_formula_sum              "Sb2 H2 O4 F12"
_cell_length_a       5.174112999999999
_cell_length_b       7.3015345668964695
_cell_length_c       8.134955459169152
_cell_angle_alpha    90.9395314512041
_cell_angle_beta     97.22151606041648
_cell_angle_gamma    91.96796560956827

_space_group_name_H-M_alt    "P 1"
_space_group_IT_number       1

loop_
  _space_group_symop_operation_xyz
  'x, y, z'

loop_
  _atom_site_type_symbol
  _atom_site_label
  _atom_site_symmetry_multiplicity
  _atom_site_fract_x
  _atom_site_fract_y
  _atom_site_fract_z
  _atom_site_occupancy
  Sb  Sb1       1.0  0.08606393646914512  0.2855470277936547  0.23725251746509457  1.0000
  Sb  Sb2       1.0  0.056686217489186674  0.07778001214228425  0.9815505876904353  1.0000
  H   H1        1.0  0.27282895846292377  0.391457604826428  0.7510512720473344  1.0000
  H   H2        1.0  0.4061789461411536  0.45594502007588744  0.6067266871687025  1.0000
  O   O1        1.0  0.5883896357845515  0.20366264625045005  0.2882050194311887  1.0000
  O   O2        1.0  0.7375176146160811  0.9365356444614008  0.6157942943973467  1.0000
  O   O3        1.0  0.7810606571147218  0.8325896604801528  0.1271114994888194  1.0000
  O   O4        1.0  0.9748583853943273  0.9250343802850693  0.4407359666656703  1.0000
  F   F1        1.0  0.9147438816726208  0.08740080194547772  0.30798199388664216  1.0000
  F   F2        1.0  0.006370957271428779  0.11471580385114066  0.9791853143542539  1.0000
  F   F3        1.0  0.7722759144380689  0.5875556509708986  0.5827681992668658  1.0000
  F   F4        1.0  0.8192173937568441  0.14892306764977548  0.5971796159865335  1.0000
  F   F5        1.0  0.41776010673493147  0.23175299365539104  0.056697880952924606  1.0000
  F   F6        1.0  0.16064440715126693  0.4167714586947113  0.08965242095291615  1.0000
  F   F7        1.0  0.9583940845914185  0.971336584596429  0.6390944691665936  1.0000
  F   F8        1.0  0.43822517432272434  0.9823471399649861  0.5974288631696254  1.0000
  F   F9        1.0  0.9840086475014687  0.39508843564544804  0.955967681016773  1.0000
  F   F10       1.0  0.3647029669955373  0.6447369476081803  0.9716372215771116  1.0000
  F   F11       1.0  0.02646988906781189  0.14688396542624105  0.5865104291879106  1.0000
  F   F12       1.0  0.7159369999144474  0.3188154532108456  0.6155388638144359  1.0000
data_image199
_chemical_formula_structural       Sb2H2O4F12
_chemical_formula_sum              "Sb2 H2 O4 F12"
_cell_length_a       5.174112999999999
_cell_length_b       7.3015345668964695
_cell_length_c       8.134955459169152
_cell_angle_alpha    90.9395314512041
_cell_angle_beta     97.22151606041648
_cell_angle_gamma    91.96796560956827

_space_group_name_H-M_alt    "P 1"
_space_group_IT_number       1

loop_
  _space_group_symop_operation_xyz
  'x, y, z'

loop_
  _atom_site_type_symbol
  _atom_site_label
  _atom_site_symmetry_multiplicity
  _atom_site_fract_x
  _atom_site_fract_y
  _atom_site_fract_z
  _atom_site_occupancy
  Sb  Sb1       1.0  0.8510688685346395  0.3885641831657267  0.9501492366398452  1.0000
  Sb  Sb2       1.0  0.19753967877477407  0.0008908663426154817  0.8068006685352884  1.0000
  H   H1        1.0  0.9118803329765797  0.6321026807418093  0.5249549492727965  1.0000
  H   H2        1.0  0.8282828684896231  0.3148611602373421  0.25147782801650465  1.0000
  O   O1        1.0  0.974832900101319  0.9572914966847748  0.6228466932079755  1.0000
  O   O2        1.0  0.8280676001450047  0.45473352080443874  0.6163153809611686  1.0000
  O   O3        1.0  0.17017884994857013  0.10391686341608874  0.37088305345969275  1.0000
  O   O4        1.0  0.718936558580026  0.6876465131645091  0.36486332840286195  1.0000
  F   F1        1.0  0.6168914013542235  0.8565640486776829  0.7663537829648703  1.0000
  F   F2        1.0  0.45374450070085004  0.2002036710618995  0.7116316986212041  1.0000
  F   F3        1.0  0.5423622883390635  0.07105569029226899  0.9287811343092471  1.0000
  F   F4        1.0  0.8729219601955265  0.6832173739221616  0.31784820987377316  1.0000
  F   F5        1.0  0.6075593195855618  0.4284464649390429  0.6484309695679258  1.0000
  F   F6        1.0  0.4415360097773373  0.6054622695082799  0.7621650006622076  1.0000
  F   F7        1.0  0.8330414538504556  0.6244886280328501  0.2694364480994409  1.0000
  F   F8        1.0  0.018705944996327162  0.17396825337345945  0.4375491776736453  1.0000
  F   F9        1.0  0.54273676291632  0.8646550724515691  0.7451789887854829  1.0000
  F   F10       1.0  0.6283940887078643  0.7597476172377355  0.3999585775891319  1.0000
  F   F11       1.0  0.9293103688250994  0.2058163335896097  0.8147608023718931  1.0000
  F   F12       1.0  0.8701441148150479  0.9616701389895752  0.5895768700283952  1.0000
data_image200
_chemical_formula_structural       Sb2H2O4F12
_chemical_formula_sum              "Sb2 H2 O4 F12"
_cell_length_a       5.174112999999999
_cell_length_b       7.3015345668964695
_cell_length_c       8.134955459169152
_cell_angle_alpha    90.9395314512041
_cell_angle_beta     97.22151606041648
_cell_angle_gamma    91.96796560956827

_space_group_name_H-M_alt    "P 1"
_space_group_IT_number       1

loop_
  _space_group_symop_operation_xyz
  'x, y, z'

loop_
  _atom_site_type_symbol
  _atom_site_label
  _atom_site_symmetry_multiplicity
  _atom_site_fract_x
  _atom_site_fract_y
  _atom_site_fract_z
  _atom_site_occupancy
  Sb  Sb1       1.0  0.9315719229634851  0.25541735992010217  0.28326575485698413  1.0000
  Sb  Sb2       1.0  0.2906975847436115  0.9621578816372676  0.8143466944457032  1.0000
  H   H1        1.0  0.7497011153027415  0.9343619955470785  0.38671117536432575  1.0000
  H   H2        1.0  0.9671488110907376  0.4920344597194344  0.35901350853964686  1.0000
  O   O1        1.0  0.5781495447736233  0.9073359623725992  0.08380632702028379  1.0000
  O   O2        1.0  0.34415558842010796  0.014132433396298438  0.4290258818073198  1.0000
  O   O3        1.0  0.6428919857135043  0.598991126549663  0.38173994154203683  1.0000
  O   O4        1.0  0.15380977629683912  0.9238061476498842  0.49215824739076197  1.0000
  F   F1        1.0  0.41017110040411353  0.8698019599542022  0.7987792665371671  1.0000
  F   F2        1.0  0.9299952799046878  0.967799887584988  0.08545047201914713  1.0000
  F   F3        1.0  0.6091552174184471  0.011822927976027131  0.8583235844271258  1.0000
  F   F4        1.0  0.7613003234146163  0.7715640702745077  0.3204267301480286  1.0000
  F   F5        1.0  0.6248574983328581  0.7968039753613994  0.028878599925519666  1.0000
  F   F6        1.0  0.011174330953508615  0.6229565944522619  0.4018645823234692  1.0000
  F   F7        1.0  0.7044757268158719  0.4475234654091764  0.5755699956935132  1.0000
  F   F8        1.0  0.952067578677088  0.8776766630471684  0.41083418735070154  1.0000
  F   F9        1.0  0.40142528782598674  0.47948917967732996  0.8822210762300529  1.0000
  F   F10       1.0  0.34285197174176574  0.8106850225594826  0.09823930863058195  1.0000
  F   F11       1.0  0.1568678707262734  0.6798460555437487  0.5184299737738911  1.0000
  F   F12       1.0  0.2300339617231657  0.029285160591825843  0.08806019340408966  1.0000
