data_image0
_chemical_formula_structural       V8O14
_chemical_formula_sum              "V8 O14"
_cell_length_a       5.550582121701734
_cell_length_b       6.786413640792483
_cell_length_c       6.98693040473207
_cell_angle_alpha    64.37373990390658
_cell_angle_beta     70.29505848782973
_cell_angle_gamma    75.17998095895898

_space_group_name_H-M_alt    "P 1"
_space_group_IT_number       1

loop_
  _space_group_symop_operation_xyz
  'x, y, z'

loop_
  _atom_site_type_symbol
  _atom_site_label
  _atom_site_symmetry_multiplicity
  _atom_site_fract_x
  _atom_site_fract_y
  _atom_site_fract_z
  _atom_site_occupancy
  V   V1        1.0  0.18942649  0.09843253999999999  0.25562265  1.0000
  V   V2        1.0  0.71888154  0.37314962  0.4134033499999999  1.0000
  V   V3        1.0  0.2811589  0.6268561899999999  0.58655718  1.0000
  V   V4        1.0  0.28626384999999993  0.62441652  0.08475941000000008  1.0000
  V   V5        1.0  0.7136940499999999  0.37559669  0.91525465  1.0000
  V   V6        1.0  0.18494216  0.09359052000000001  0.7588249  1.0000
  V   V7        1.0  0.81509894  0.9064218799999999  0.2411521300000001  1.0000
  V   V8        1.0  0.81055731  0.9015917699999999  0.7443768700000001  1.0000
  O   O1        1.0  0.79641386  0.05421549999999999  0.43476307  1.0000
  O   O2        1.0  0.82626764  0.22413991999999994  0.70253556  1.0000
  O   O3        1.0  0.97506323  0.8279031499999999  0.9800118700000002  1.0000
  O   O4        1.0  0.08348560000000001  0.38796779  0.2575656700000001  1.0000
  O   O5        1.0  0.4727541600000001  0.8959446799999998  0.8621457800000002  1.0000
  O   O6        1.0  0.024925020000000006  0.17207285999999997  0.020007259999999992  1.0000
  O   O7        1.0  0.4012299  0.53280418  0.83878865  1.0000
  O   O8        1.0  0.17373975  0.7758278399999997  0.29744289000000007  1.0000
  O   O9        1.0  0.35382631999999997  0.3325426799999999  0.5915135100000001  1.0000
  O   O10       1.0  0.91653848  0.6120104199999999  0.7424219700000002  1.0000
  O   O11       1.0  0.64614773  0.6674736499999999  0.40848407000000003  1.0000
  O   O12       1.0  0.20359328999999998  0.9457673100000001  0.56523646  1.0000
  O   O13       1.0  0.5272942899999999  0.10398697999999999  0.13791320999999993  1.0000
  O   O14       1.0  0.59869552  0.46728934  0.16121789  1.0000
data_image1
_chemical_formula_structural       V8O14
_chemical_formula_sum              "V8 O14"
_cell_length_a       5.550582121701734
_cell_length_b       6.786413640792483
_cell_length_c       6.98693040473207
_cell_angle_alpha    64.37373990390658
_cell_angle_beta     70.29505848782973
_cell_angle_gamma    75.17998095895898

_space_group_name_H-M_alt    "P 1"
_space_group_IT_number       1

loop_
  _space_group_symop_operation_xyz
  'x, y, z'

loop_
  _atom_site_type_symbol
  _atom_site_label
  _atom_site_symmetry_multiplicity
  _atom_site_fract_x
  _atom_site_fract_y
  _atom_site_fract_z
  _atom_site_occupancy
  V   V1        1.0  0.20641238506150283  0.10169205486640655  0.2617102321629501  1.0000
  V   V2        1.0  0.7531633192333578  0.3921322758164893  0.3765802628237935  1.0000
  V   V3        1.0  0.25132142937566243  0.6379912838378496  0.5848697916785052  1.0000
  V   V4        1.0  0.291578780924263  0.6632048951668555  0.06909625335240152  1.0000
  V   V5        1.0  0.7067304983389743  0.34545039319542564  0.912628691464549  1.0000
  V   V6        1.0  0.20280779288597697  0.1245081820281546  0.7163536633585651  1.0000
  V   V7        1.0  0.8300804184867221  0.8881104158644803  0.2606317117659712  1.0000
  V   V8        1.0  0.7915172489919131  0.8802092729232861  0.766453626871299  1.0000
  O   O1        1.0  0.8303946640571539  0.06896714821361445  0.41833410279296784  1.0000
  O   O2        1.0  0.8267042606340391  0.20785803381169  0.7090413091181892  1.0000
  O   O3        1.0  0.9591276715682552  0.8181268277225179  0.00663521700158598  1.0000
  O   O4        1.0  0.07421373819769032  0.3994448600651945  0.30477789279046336  1.0000
  O   O5        1.0  0.4753527790740544  0.9215681716760388  0.8341374643747446  1.0000
  O   O6        1.0  0.9839555497705872  0.1737960663204254  0.9983855694367824  1.0000
  O   O7        1.0  0.3624274012870746  0.5066606719085357  0.8866355088323239  1.0000
  O   O8        1.0  0.1548848337810304  0.7491887494423023  0.31073849764488953  1.0000
  O   O9        1.0  0.3641745594476013  0.3576200430345189  0.566360720901559  1.0000
  O   O10       1.0  0.8990946242525958  0.6193991456231667  0.7275806584320602  1.0000
  O   O11       1.0  0.6387500475148006  0.6690361001206196  0.4635151693277973  1.0000
  O   O12       1.0  0.21419679951078363  0.905003124149454  0.6225645312199484  1.0000
  O   O13       1.0  0.5245761514613126  0.04443717822416745  0.1298535602322109  1.0000
  O   O14       1.0  0.582695478360184  0.44178787637652367  0.18504556101924294  1.0000
data_image2
_chemical_formula_structural       V8O14
_chemical_formula_sum              "V8 O14"
_cell_length_a       5.550582121701734
_cell_length_b       6.786413640792483
_cell_length_c       6.98693040473207
_cell_angle_alpha    64.37373990390658
_cell_angle_beta     70.29505848782973
_cell_angle_gamma    75.17998095895898

_space_group_name_H-M_alt    "P 1"
_space_group_IT_number       1

loop_
  _space_group_symop_operation_xyz
  'x, y, z'

loop_
  _atom_site_type_symbol
  _atom_site_label
  _atom_site_symmetry_multiplicity
  _atom_site_fract_x
  _atom_site_fract_y
  _atom_site_fract_z
  _atom_site_occupancy
  V   V1        1.0  0.19907278403126716  0.06773016488865284  0.24046385212289206  1.0000
  V   V2        1.0  0.7383958045853326  0.3804508095764163  0.3663086784073895  1.0000
  V   V3        1.0  0.24583519990305513  0.6045662598136912  0.6401857289363583  1.0000
  V   V4        1.0  0.26546274946523046  0.6537057813319485  0.10452291272101279  1.0000
  V   V5        1.0  0.7376781770435816  0.3540983129237619  0.8985395242014332  1.0000
  V   V6        1.0  0.21231736888176803  0.101983750223654  0.7487605447791718  1.0000
  V   V7        1.0  0.7913723554937397  0.9213458430397388  0.2688777633934172  1.0000
  V   V8        1.0  0.7842992629166882  0.904571188932076  0.7470956862432203  1.0000
  O   O1        1.0  0.8021334237996317  0.06628935640068845  0.4632328668486037  1.0000
  O   O2        1.0  0.8371479410674535  0.2855218094593683  0.6397699679598533  1.0000
  O   O3        1.0  0.02699641377113471  0.8665552851102171  0.9262440146575719  1.0000
  O   O4        1.0  0.12079066080546498  0.36488814871785075  0.2777511003487202  1.0000
  O   O5        1.0  0.458443484485038  0.8801997375709124  0.9636714263365295  1.0000
  O   O6        1.0  0.04717386828684674  0.19201688987673876  0.01772374702738483  1.0000
  O   O7        1.0  0.3880522007792274  0.5114549781043607  0.8694012835150986  1.0000
  O   O8        1.0  0.11820901744197453  0.7228072467741166  0.34785879160446775  1.0000
  O   O9        1.0  0.391814750829998  0.32676405081687754  0.5945952021593996  1.0000
  O   O10       1.0  0.8693509409097766  0.5833207800322652  0.7408623961341845  1.0000
  O   O11       1.0  0.6065951841774058  0.6907187592230979  0.35318123146253944  1.0000
  O   O12       1.0  0.2611810183578674  0.910727835926787  0.5441432694762744  1.0000
  O   O13       1.0  0.5496278118957485  0.1305086743162681  0.073652652576206  1.0000
  O   O14       1.0  0.6003682402730165  0.4878517648616078  0.14757526366488802  1.0000
data_image3
_chemical_formula_structural       V8O14
_chemical_formula_sum              "V8 O14"
_cell_length_a       5.550582121701734
_cell_length_b       6.786413640792483
_cell_length_c       6.98693040473207
_cell_angle_alpha    64.37373990390658
_cell_angle_beta     70.29505848782973
_cell_angle_gamma    75.17998095895898

_space_group_name_H-M_alt    "P 1"
_space_group_IT_number       1

loop_
  _space_group_symop_operation_xyz
  'x, y, z'

loop_
  _atom_site_type_symbol
  _atom_site_label
  _atom_site_symmetry_multiplicity
  _atom_site_fract_x
  _atom_site_fract_y
  _atom_site_fract_z
  _atom_site_occupancy
  V   V1        1.0  0.21130648411833455  0.11543156299593778  0.1972852434059384  1.0000
  V   V2        1.0  0.7589874469590538  0.3413694513760628  0.41516669176809656  1.0000
  V   V3        1.0  0.27413892657780325  0.705705315736483  0.5300080084024843  1.0000
  V   V4        1.0  0.29985087071408223  0.5900240433163908  0.08153771547074347  1.0000
  V   V5        1.0  0.7198484497375424  0.3933152429967598  0.8548726475048418  1.0000
  V   V6        1.0  0.1969846760847841  0.0996994656101657  0.7456965529572888  1.0000
  V   V7        1.0  0.7272530943527503  0.8844201767298885  0.3578105191067208  1.0000
  V   V8        1.0  0.7458905239213238  0.901317913424716  0.8504175289376711  1.0000
  O   O1        1.0  0.7717667447532776  0.015376240907711284  0.49198113813946287  1.0000
  O   O2        1.0  0.8826955355123685  0.24063579749578787  0.6591758263721625  1.0000
  O   O3        1.0  0.9447262142118762  0.804362723875642  0.053016791938887975  1.0000
  O   O4        1.0  0.12692247781031826  0.3547321160461639  0.2577914085354738  1.0000
  O   O5        1.0  0.42185676902083724  0.8593397000502637  0.8766449927678915  1.0000
  O   O6        1.0  0.038642309742846145  0.18896281204729823  0.010862278353937885  1.0000
  O   O7        1.0  0.3630946002574465  0.4940841441777911  0.8441590750437614  1.0000
  O   O8        1.0  0.16327983616727887  0.7666195580727317  0.28821272685706784  1.0000
  O   O9        1.0  0.38675673598788934  0.31828307999083655  0.5978342717863834  1.0000
  O   O10       1.0  0.9420952185150202  0.6676290352497369  0.6834549995484747  1.0000
  O   O11       1.0  0.6438812001999837  0.6133498050523035  0.46591029481238466  1.0000
  O   O12       1.0  0.30974260904328815  0.9873700727113632  0.4902606461114122  1.0000
  O   O13       1.0  0.5716298840619553  0.10251677195955594  0.04847070688761442  1.0000
  O   O14       1.0  0.6406338420356685  0.45980590484425876  0.14066518182084836  1.0000
data_image4
_chemical_formula_structural       V8O14
_chemical_formula_sum              "V8 O14"
_cell_length_a       5.550582121701734
_cell_length_b       6.786413640792483
_cell_length_c       6.98693040473207
_cell_angle_alpha    64.37373990390658
_cell_angle_beta     70.29505848782973
_cell_angle_gamma    75.17998095895898

_space_group_name_H-M_alt    "P 1"
_space_group_IT_number       1

loop_
  _space_group_symop_operation_xyz
  'x, y, z'

loop_
  _atom_site_type_symbol
  _atom_site_label
  _atom_site_symmetry_multiplicity
  _atom_site_fract_x
  _atom_site_fract_y
  _atom_site_fract_z
  _atom_site_occupancy
  V   V1        1.0  0.2375938896424749  0.17507590173448426  0.17957242771085702  1.0000
  V   V2        1.0  0.678748173958591  0.3731812781187099  0.43199009148485024  1.0000
  V   V3        1.0  0.3142984891557478  0.6000196927239826  0.6094877850489409  1.0000
  V   V4        1.0  0.25949191777080405  0.6023350883917622  0.16386786900796035  1.0000
  V   V5        1.0  0.7562039921547044  0.39330690195499685  0.8707986172320448  1.0000
  V   V6        1.0  0.19952521379002838  0.08435150806217206  0.69819281142926  1.0000
  V   V7        1.0  0.8267731135707743  0.8737120204088172  0.26429749150709264  1.0000
  V   V8        1.0  0.7440913228942176  0.8703589907197723  0.8793311778286166  1.0000
  O   O1        1.0  0.7632499268933575  0.09193292682776198  0.32370142873221264  1.0000
  O   O2        1.0  0.7893946748284966  0.14314817888534073  0.6767597327407718  1.0000
  O   O3        1.0  0.031631055495733085  0.8169675348484212  0.9864200965988436  1.0000
  O   O4        1.0  0.010837771322905506  0.4239855010369262  0.2841233960361452  1.0000
  O   O5        1.0  0.4297697244136591  0.9145130115156945  0.8727268910176614  1.0000
  O   O6        1.0  0.06463999895271484  0.21370110941184847  0.9373606906933732  1.0000
  O   O7        1.0  0.3724348725905849  0.46187444891362556  0.8921891760640794  1.0000
  O   O8        1.0  0.19020727573243795  0.784151506149078  0.29686367913746325  1.0000
  O   O9        1.0  0.30173304504725845  0.35933714724640486  0.507293196209365  1.0000
  O   O10       1.0  0.8909045787620474  0.6700208722254809  0.741430392487646  1.0000
  O   O11       1.0  0.6411304117650058  0.6573791244799213  0.4534457823044188  1.0000
  O   O12       1.0  0.2872117311774537  0.9709612964173233  0.48548926158410616  1.0000
  O   O13       1.0  0.569421107485077  0.056177456212640337  0.07842454625404598  1.0000
  O   O14       1.0  0.6062960167116374  0.4995222094927378  0.1627341988506742  1.0000
data_image5
_chemical_formula_structural       V8O14
_chemical_formula_sum              "V8 O14"
_cell_length_a       5.550582121701734
_cell_length_b       6.786413640792483
_cell_length_c       6.98693040473207
_cell_angle_alpha    64.37373990390658
_cell_angle_beta     70.29505848782973
_cell_angle_gamma    75.17998095895898

_space_group_name_H-M_alt    "P 1"
_space_group_IT_number       1

loop_
  _space_group_symop_operation_xyz
  'x, y, z'

loop_
  _atom_site_type_symbol
  _atom_site_label
  _atom_site_symmetry_multiplicity
  _atom_site_fract_x
  _atom_site_fract_y
  _atom_site_fract_z
  _atom_site_occupancy
  V   V1        1.0  0.173961513252481  0.12170311420579429  0.20406555937628074  1.0000
  V   V2        1.0  0.7551139083626006  0.35752091282840187  0.3753185614161256  1.0000
  V   V3        1.0  0.29860144853573994  0.6239969711601954  0.5873412854006327  1.0000
  V   V4        1.0  0.26797324973547715  0.6304290014770186  0.10119674048037612  1.0000
  V   V5        1.0  0.6868596768950246  0.3771248858824228  0.9071078217036715  1.0000
  V   V6        1.0  0.16231438097663978  0.15127093163219782  0.7157459404562392  1.0000
  V   V7        1.0  0.7948493029256614  0.8681607778722434  0.27496468607170377  1.0000
  V   V8        1.0  0.78785725155211  0.8656245692732497  0.8280768647205936  1.0000
  O   O1        1.0  0.8613060491511357  0.04962640492611126  0.4277156776064321  1.0000
  O   O2        1.0  0.8213181967272899  0.16673079026915083  0.6966972291481922  1.0000
  O   O3        1.0  0.9670068253185071  0.8152318159624903  0.024904799976629866  1.0000
  O   O4        1.0  0.11258686205022178  0.3499277332773853  0.3030936610146922  1.0000
  O   O5        1.0  0.4367864758513474  0.9484034956249835  0.8948411420602248  1.0000
  O   O6        1.0  0.050855520833913564  0.19536888335501323  0.977936040076498  1.0000
  O   O7        1.0  0.35724148863928334  0.46573058392088135  0.8917758403041998  1.0000
  O   O8        1.0  0.22737888492269032  0.8088019803114458  0.2752202586096639  1.0000
  O   O9        1.0  0.3791151754142683  0.3611507291145297  0.5059444731236149  1.0000
  O   O10       1.0  0.945720218640512  0.573494878370272  0.7073504737383735  1.0000
  O   O11       1.0  0.6357168073421003  0.6246088412165338  0.4616725706672195  1.0000
  O   O12       1.0  0.2510679518639466  0.9666044126601425  0.6044888571046781  1.0000
  O   O13       1.0  0.5581908536230997  0.1079407497438317  0.1568426780839095  1.0000
  O   O14       1.0  0.6257902152459939  0.5615494481401173  0.10813979637510977  1.0000
data_image6
_chemical_formula_structural       V8O14
_chemical_formula_sum              "V8 O14"
_cell_length_a       5.550582121701734
_cell_length_b       6.786413640792483
_cell_length_c       6.98693040473207
_cell_angle_alpha    64.37373990390658
_cell_angle_beta     70.29505848782973
_cell_angle_gamma    75.17998095895898

_space_group_name_H-M_alt    "P 1"
_space_group_IT_number       1

loop_
  _space_group_symop_operation_xyz
  'x, y, z'

loop_
  _atom_site_type_symbol
  _atom_site_label
  _atom_site_symmetry_multiplicity
  _atom_site_fract_x
  _atom_site_fract_y
  _atom_site_fract_z
  _atom_site_occupancy
  V   V1        1.0  0.26033299203200455  0.04525440780530553  0.2632735865730985  1.0000
  V   V2        1.0  0.7076504246981264  0.387996024783965  0.40169132520646406  1.0000
  V   V3        1.0  0.2547248718654192  0.6221254033010801  0.5966705257634816  1.0000
  V   V4        1.0  0.23634348028194782  0.6248186283465674  0.08870728856216369  1.0000
  V   V5        1.0  0.691490166307372  0.3959121663790289  0.884995209087753  1.0000
  V   V6        1.0  0.2245080828847778  0.0333735792933265  0.7844313902306103  1.0000
  V   V7        1.0  0.8405622322791231  0.9458597231626389  0.21506115019566968  1.0000
  V   V8        1.0  0.7873346468684663  0.9373188723917149  0.7398058281989183  1.0000
  O   O1        1.0  0.7114967821141652  0.09822663724408706  0.4610753668366527  1.0000
  O   O2        1.0  0.7970527589737922  0.2409021051456412  0.7245731365508196  1.0000
  O   O3        1.0  0.960409986157362  0.7704711970681299  0.030182713257631777  1.0000
  O   O4        1.0  0.11227463766113403  0.38272403929927235  0.21606442882180568  1.0000
  O   O5        1.0  0.4893322775296831  0.8901656541384456  0.9262435135785525  1.0000
  O   O6        1.0  0.026993078536674375  0.1670576219395933  0.024655886272195376  1.0000
  O   O7        1.0  0.4125202964755667  0.5700104999002962  0.8262268559784792  1.0000
  O   O8        1.0  0.1954630298691301  0.6998998201449463  0.3276753143537795  1.0000
  O   O9        1.0  0.37130129089981284  0.3310219822123253  0.6422607401898165  1.0000
  O   O10       1.0  0.9277636534422558  0.6356667803525492  0.6799504945356902  1.0000
  O   O11       1.0  0.6328416390800237  0.6811536722624195  0.40814329314573866  1.0000
  O   O12       1.0  0.23186008705971387  0.9792672785096471  0.5667459434234099  1.0000
  O   O13       1.0  0.5672833041473316  0.11132923789726741  0.08219314346963176  1.0000
  O   O14       1.0  0.5586689064640925  0.44909445461174263  0.17112786251618803  1.0000
data_image7
_chemical_formula_structural       V8O14
_chemical_formula_sum              "V8 O14"
_cell_length_a       5.550582121701734
_cell_length_b       6.786413640792483
_cell_length_c       6.98693040473207
_cell_angle_alpha    64.37373990390658
_cell_angle_beta     70.29505848782973
_cell_angle_gamma    75.17998095895898

_space_group_name_H-M_alt    "P 1"
_space_group_IT_number       1

loop_
  _space_group_symop_operation_xyz
  'x, y, z'

loop_
  _atom_site_type_symbol
  _atom_site_label
  _atom_site_symmetry_multiplicity
  _atom_site_fract_x
  _atom_site_fract_y
  _atom_site_fract_z
  _atom_site_occupancy
  V   V1        1.0  0.19384473355395523  0.06775812926532578  0.23716138551918983  1.0000
  V   V2        1.0  0.7663785504919362  0.3581010592741403  0.3960429678894377  1.0000
  V   V3        1.0  0.296516553495826  0.6568532384570012  0.5489511552863644  1.0000
  V   V4        1.0  0.27217718755505016  0.6399369457527898  0.08289276070594877  1.0000
  V   V5        1.0  0.7111868310221063  0.36835214596694815  0.9364966360118309  1.0000
  V   V6        1.0  0.19567434119973182  0.11626936579809453  0.7250687218176758  1.0000
  V   V7        1.0  0.7814431039859824  0.9064534392323501  0.2630739673880249  1.0000
  V   V8        1.0  0.8202598383877934  0.9164326308920723  0.7656854551331747  1.0000
  O   O1        1.0  0.785653083333546  0.9998854485574973  0.4576775879328889  1.0000
  O   O2        1.0  0.7685222437483008  0.20294664101367646  0.6978055757712718  1.0000
  O   O3        1.0  0.9306863414669101  0.8166510333886887  0.019775484400734733  1.0000
  O   O4        1.0  0.07090352746727231  0.3854042288927576  0.29641896799397166  1.0000
  O   O5        1.0  0.4532608630223206  0.895558594475046  0.9027093701160079  1.0000
  O   O6        1.0  0.017588173916088433  0.16480053663633756  0.013633073780557246  1.0000
  O   O7        1.0  0.35679228196971025  0.5089574679618829  0.8468577854418031  1.0000
  O   O8        1.0  0.1875334155675243  0.7556563453641899  0.2895050899849552  1.0000
  O   O9        1.0  0.37551696116718114  0.3901045255706239  0.5560624201058451  1.0000
  O   O10       1.0  0.9163818059023997  0.6313980308622464  0.7402508822762828  1.0000
  O   O11       1.0  0.6522688341129741  0.6345973148403687  0.4406255955385495  1.0000
  O   O12       1.0  0.20581614571839385  0.9570296640571527  0.5465929498424561  1.0000
  O   O13       1.0  0.511866432050586  0.11234342681279488  0.18417746510543068  1.0000
  O   O14       1.0  0.6590000488935858  0.438267993304597  0.15057064883053925  1.0000
data_image8
_chemical_formula_structural       V8O14
_chemical_formula_sum              "V8 O14"
_cell_length_a       5.550582121701734
_cell_length_b       6.786413640792483
_cell_length_c       6.98693040473207
_cell_angle_alpha    64.37373990390658
_cell_angle_beta     70.29505848782973
_cell_angle_gamma    75.17998095895898

_space_group_name_H-M_alt    "P 1"
_space_group_IT_number       1

loop_
  _space_group_symop_operation_xyz
  'x, y, z'

loop_
  _atom_site_type_symbol
  _atom_site_label
  _atom_site_symmetry_multiplicity
  _atom_site_fract_x
  _atom_site_fract_y
  _atom_site_fract_z
  _atom_site_occupancy
  V   V1        1.0  0.17495310979336784  0.11625858832638691  0.2534870521789114  1.0000
  V   V2        1.0  0.7349817086855438  0.37854685122784537  0.37798390916063584  1.0000
  V   V3        1.0  0.2617439832450508  0.6382400204969145  0.5973590769715734  1.0000
  V   V4        1.0  0.3206137883592655  0.6442703750609043  0.0876883994580593  1.0000
  V   V5        1.0  0.7251586117440404  0.33292794971751677  0.8907275642992061  1.0000
  V   V6        1.0  0.19473799006020814  0.07403606656315181  0.7534785147007681  1.0000
  V   V7        1.0  0.7999313103107836  0.940396672004284  0.21877336527988298  1.0000
  V   V8        1.0  0.8129493852658357  0.8981376040734964  0.755037586430323  1.0000
  O   O1        1.0  0.7844174813143907  0.023750733424990816  0.4590588505871501  1.0000
  O   O2        1.0  0.8301318118453236  0.20872901518975287  0.7053501289703533  1.0000
  O   O3        1.0  0.9760955527085962  0.8494362189216021  0.9943527959943104  1.0000
  O   O4        1.0  0.09512184997430864  0.3784541978279324  0.29169820892437265  1.0000
  O   O5        1.0  0.4258664381672132  0.9068392322937932  0.9435532329560127  1.0000
  O   O6        1.0  0.011020177865064514  0.21584214932201326  0.9864707286130556  1.0000
  O   O7        1.0  0.3533212106631049  0.49902237642842007  0.8845714197418862  1.0000
  O   O8        1.0  0.16692502731437414  0.7639192430209227  0.32261273623305614  1.0000
  O   O9        1.0  0.3828263771170845  0.2952425917747783  0.6605235830695413  1.0000
  O   O10       1.0  0.9199898016669776  0.5746639532437734  0.7439598771293495  1.0000
  O   O11       1.0  0.5783320719946897  0.6359878961363323  0.4104892403776074  1.0000
  O   O12       1.0  0.1974382186345491  0.9090743820131824  0.6043820778779702  1.0000
  O   O13       1.0  0.5035283022766555  0.14209827327213373  0.09002891962514047  1.0000
  O   O14       1.0  0.7042805180669203  0.5107490217819313  0.11679416143826742  1.0000
data_image9
_chemical_formula_structural       V8O14
_chemical_formula_sum              "V8 O14"
_cell_length_a       5.550582121701734
_cell_length_b       6.786413640792483
_cell_length_c       6.98693040473207
_cell_angle_alpha    64.37373990390658
_cell_angle_beta     70.29505848782973
_cell_angle_gamma    75.17998095895898

_space_group_name_H-M_alt    "P 1"
_space_group_IT_number       1

loop_
  _space_group_symop_operation_xyz
  'x, y, z'

loop_
  _atom_site_type_symbol
  _atom_site_label
  _atom_site_symmetry_multiplicity
  _atom_site_fract_x
  _atom_site_fract_y
  _atom_site_fract_z
  _atom_site_occupancy
  V   V1        1.0  0.19487291261024703  0.09272622988826994  0.239749769639943  1.0000
  V   V2        1.0  0.71714694772619  0.3517047937453514  0.4229430918308025  1.0000
  V   V3        1.0  0.3060231702700892  0.6799038161361985  0.5656258568807343  1.0000
  V   V4        1.0  0.2828457123493933  0.6135513650037463  0.10483084848373632  1.0000
  V   V5        1.0  0.7181664837070854  0.42440050823636  0.8626612548634497  1.0000
  V   V6        1.0  0.18125522477889808  0.13015973435537628  0.7599576122559397  1.0000
  V   V7        1.0  0.8230602629486568  0.9122263162120913  0.23295247193870092  1.0000
  V   V8        1.0  0.7918661220609428  0.8669282610283883  0.7884371998314046  1.0000
  O   O1        1.0  0.7987315929950872  0.017678833801329622  0.46009805930682973  1.0000
  O   O2        1.0  0.7712265206389013  0.19475558807440818  0.7282362040176854  1.0000
  O   O3        1.0  0.9270561158182081  0.7656847703188234  0.056955215214048005  1.0000
  O   O4        1.0  0.0710122892352646  0.3663519287480584  0.20856537785627055  1.0000
  O   O5        1.0  0.4628922594359513  0.9060313870593417  0.819252259378073  1.0000
  O   O6        1.0  0.013694751503618832  0.16850457280814576  0.027287431167123642  1.0000
  O   O7        1.0  0.38383794737785876  0.4740604083333196  0.8414114105752359  1.0000
  O   O8        1.0  0.1855489896757801  0.7918801646342798  0.309037975156212  1.0000
  O   O9        1.0  0.32471583352124483  0.33208418610592516  0.5371731348059072  1.0000
  O   O10       1.0  0.9804131003395323  0.5894568075904298  0.7376628411029412  1.0000
  O   O11       1.0  0.6972038077583975  0.6484044833736511  0.48949289759152004  1.0000
  O   O12       1.0  0.17995692678739456  0.9564961703333238  0.5923932631762368  1.0000
  O   O13       1.0  0.557679174740088  0.05279410821912517  0.15862886121208603  1.0000
  O   O14       1.0  0.6122048928336251  0.500254576027631  0.11258477346170874  1.0000
data_image10
_chemical_formula_structural       V8O14
_chemical_formula_sum              "V8 O14"
_cell_length_a       5.550582121701734
_cell_length_b       6.786413640792483
_cell_length_c       6.98693040473207
_cell_angle_alpha    64.37373990390658
_cell_angle_beta     70.29505848782973
_cell_angle_gamma    75.17998095895898

_space_group_name_H-M_alt    "P 1"
_space_group_IT_number       1

loop_
  _space_group_symop_operation_xyz
  'x, y, z'

loop_
  _atom_site_type_symbol
  _atom_site_label
  _atom_site_symmetry_multiplicity
  _atom_site_fract_x
  _atom_site_fract_y
  _atom_site_fract_z
  _atom_site_occupancy
  V   V1        1.0  0.21400247896379654  0.1372477892815161  0.18377048221728592  1.0000
  V   V2        1.0  0.7277174783987582  0.3581671243301242  0.4062728157372226  1.0000
  V   V3        1.0  0.3119240703992125  0.6359239285723091  0.6247914349284438  1.0000
  V   V4        1.0  0.2777213718125938  0.6678160139042034  0.06652210903974758  1.0000
  V   V5        1.0  0.6876887303191188  0.34440527508021473  0.9266167969486971  1.0000
  V   V6        1.0  0.1882870856043598  0.08580854721452193  0.7483686079068095  1.0000
  V   V7        1.0  0.8251906410137577  0.8925246098141211  0.26735857591845796  1.0000
  V   V8        1.0  0.8184524564945225  0.8702023079345728  0.7794093400485318  1.0000
  O   O1        1.0  0.7601138270299524  0.9988913154294585  0.4751438909787907  1.0000
  O   O2        1.0  0.8175687999800166  0.27027501510677204  0.69161866002786  1.0000
  O   O3        1.0  0.028761966471269718  0.8346974754008177  0.9491940067848157  1.0000
  O   O4        1.0  0.06021794676357501  0.42858829777347957  0.2492891562962766  1.0000
  O   O5        1.0  0.45261746125580754  0.9434787693819364  0.8950506903229619  1.0000
  O   O6        1.0  0.015256327984751844  0.14737672730654208  0.0018983678977508496  1.0000
  O   O7        1.0  0.33617281927803355  0.4629001020097276  0.9090403697919716  1.0000
  O   O8        1.0  0.16799804681657968  0.8355160454449858  0.26642451231425995  1.0000
  O   O9        1.0  0.3699856496559673  0.34437528815612534  0.5197044103223432  1.0000
  O   O10       1.0  0.8871282733258432  0.5783824474182641  0.7688481905342126  1.0000
  O   O11       1.0  0.5973201130079479  0.6533326221011495  0.4230791350649068  1.0000
  O   O12       1.0  0.17988337568766477  0.9870356668280652  0.5360184313970751  1.0000
  O   O13       1.0  0.5560794918869875  0.05918385622947026  0.15400136789138802  1.0000
  O   O14       1.0  0.6156367525739913  0.47575623163565495  0.1543903899780859  1.0000
data_image11
_chemical_formula_structural       V8O14
_chemical_formula_sum              "V8 O14"
_cell_length_a       5.550582121701734
_cell_length_b       6.786413640792483
_cell_length_c       6.98693040473207
_cell_angle_alpha    64.37373990390658
_cell_angle_beta     70.29505848782973
_cell_angle_gamma    75.17998095895898

_space_group_name_H-M_alt    "P 1"
_space_group_IT_number       1

loop_
  _space_group_symop_operation_xyz
  'x, y, z'

loop_
  _atom_site_type_symbol
  _atom_site_label
  _atom_site_symmetry_multiplicity
  _atom_site_fract_x
  _atom_site_fract_y
  _atom_site_fract_z
  _atom_site_occupancy
  V   V1        1.0  0.18152705587600954  0.09999371698848036  0.22442076133280214  1.0000
  V   V2        1.0  0.716002061989614  0.3595886806607443  0.4407637870562402  1.0000
  V   V3        1.0  0.2789318101527767  0.6353462628406399  0.5894537072806795  1.0000
  V   V4        1.0  0.3193073263319644  0.5992981166130276  0.14458601479819294  1.0000
  V   V5        1.0  0.6976349949366348  0.4044557680442393  0.8991319482373161  1.0000
  V   V6        1.0  0.18806319500671384  0.09346100231870073  0.7381261773131074  1.0000
  V   V7        1.0  0.8203734643308817  0.8867963477934233  0.1767374397521956  1.0000
  V   V8        1.0  0.8089437752131888  0.9126241803975416  0.7109792608124419  1.0000
  O   O1        1.0  0.8387528672469596  0.07589962642663027  0.3780595980965926  1.0000
  O   O2        1.0  0.7716142198994417  0.20963861821274493  0.7568318982115817  1.0000
  O   O3        1.0  0.9807119364074818  0.7940649644825759  0.9511078679847893  1.0000
  O   O4        1.0  0.10656192423647778  0.36617267390223274  0.42420457816015683  1.0000
  O   O5        1.0  0.4842853453031959  0.854500758826861  0.818400224763852  1.0000
  O   O6        1.0  0.9978327044034317  0.19753949279771435  0.9894419428788439  1.0000
  O   O7        1.0  0.3089689134874717  0.521576008453988  0.9430255934492474  1.0000
  O   O8        1.0  0.1679821176304404  0.7914631223328862  0.2773144898316509  1.0000
  O   O9        1.0  0.3687065482636562  0.31777431688307484  0.670086812171497  1.0000
  O   O10       1.0  0.9473786178911042  0.6306044705273601  0.7359869454640359  1.0000
  O   O11       1.0  0.6692756386248947  0.6815772098532318  0.4459648849900331  1.0000
  O   O12       1.0  0.19231559407907528  0.9766109664600024  0.5530809786748009  1.0000
  O   O13       1.0  0.5215374139310888  0.11215073250393069  0.13006771495386013  1.0000
  O   O14       1.0  0.6138539391166606  0.49041721435212865  0.17409980214215967  1.0000
data_image12
_chemical_formula_structural       V8O14
_chemical_formula_sum              "V8 O14"
_cell_length_a       5.550582121701734
_cell_length_b       6.786413640792483
_cell_length_c       6.98693040473207
_cell_angle_alpha    64.37373990390658
_cell_angle_beta     70.29505848782973
_cell_angle_gamma    75.17998095895898

_space_group_name_H-M_alt    "P 1"
_space_group_IT_number       1

loop_
  _space_group_symop_operation_xyz
  'x, y, z'

loop_
  _atom_site_type_symbol
  _atom_site_label
  _atom_site_symmetry_multiplicity
  _atom_site_fract_x
  _atom_site_fract_y
  _atom_site_fract_z
  _atom_site_occupancy
  V   V1        1.0  0.1860126686512451  0.11610409477914611  0.23384031314108128  1.0000
  V   V2        1.0  0.7150657104377001  0.39954208590365387  0.4190553823443352  1.0000
  V   V3        1.0  0.1950106272790995  0.5742980161507856  0.6326363256707469  1.0000
  V   V4        1.0  0.3020005874958429  0.6769083982575395  0.07068539845221074  1.0000
  V   V5        1.0  0.7543542695364557  0.32857916524434994  0.9322017586297886  1.0000
  V   V6        1.0  0.22035623308257177  0.060062565978754846  0.7304529946200362  1.0000
  V   V7        1.0  0.8270519839231005  0.9014255632485169  0.28684637148874903  1.0000
  V   V8        1.0  0.8253456298998212  0.9015304917853011  0.7051544756454967  1.0000
  O   O1        1.0  0.8109490938258608  0.0880831909476431  0.42424666825585394  1.0000
  O   O2        1.0  0.729632919221346  0.2408566210997554  0.7114601925964736  1.0000
  O   O3        1.0  0.9707831162230794  0.879159248419975  0.964155091687678  1.0000
  O   O4        1.0  0.10090332879561584  0.4612100389387047  0.26104542624989463  1.0000
  O   O5        1.0  0.48661314303036163  0.9195865868520432  0.8846498095469036  1.0000
  O   O6        1.0  0.11204584032726564  0.17610706501050377  0.9792569025584532  1.0000
  O   O7        1.0  0.39594583688936996  0.556437760633919  0.8114740397375909  1.0000
  O   O8        1.0  0.17430092546519416  0.7413869611986105  0.35505363172482957  1.0000
  O   O9        1.0  0.319541421292009  0.32719932720927963  0.569708403932463  1.0000
  O   O10       1.0  0.8491905646276484  0.5719433301337004  0.7255205492216373  1.0000
  O   O11       1.0  0.5902620263634741  0.6969819305276451  0.42270688958660513  1.0000
  O   O12       1.0  0.19045203616641376  0.9044127510573975  0.5648981644134312  1.0000
  O   O13       1.0  0.5788475294674871  0.07759872570495509  0.17160171314468411  1.0000
  O   O14       1.0  0.5991286877478957  0.49157009118159767  0.1267458386133375  1.0000
data_image13
_chemical_formula_structural       V8O14
_chemical_formula_sum              "V8 O14"
_cell_length_a       5.550582121701734
_cell_length_b       6.786413640792483
_cell_length_c       6.98693040473207
_cell_angle_alpha    64.37373990390658
_cell_angle_beta     70.29505848782973
_cell_angle_gamma    75.17998095895898

_space_group_name_H-M_alt    "P 1"
_space_group_IT_number       1

loop_
  _space_group_symop_operation_xyz
  'x, y, z'

loop_
  _atom_site_type_symbol
  _atom_site_label
  _atom_site_symmetry_multiplicity
  _atom_site_fract_x
  _atom_site_fract_y
  _atom_site_fract_z
  _atom_site_occupancy
  V   V1        1.0  0.18835656677521947  0.0498705007579459  0.24076119008111904  1.0000
  V   V2        1.0  0.7532733373544135  0.34542696084880153  0.3948943995842469  1.0000
  V   V3        1.0  0.2885385610242509  0.6472122621459331  0.5563597720022296  1.0000
  V   V4        1.0  0.26316170972071434  0.6300116633488942  0.09214351248569193  1.0000
  V   V5        1.0  0.7204613705626285  0.4155072307386482  0.8778249946761625  1.0000
  V   V6        1.0  0.19256072561902696  0.13424804716043295  0.7350686243376813  1.0000
  V   V7        1.0  0.771370960832406  0.8750335338335723  0.27257247162869724  1.0000
  V   V8        1.0  0.7584170948054262  0.8820051053883425  0.8001917632250408  1.0000
  O   O1        1.0  0.8220911480977281  0.05690641289091963  0.44441100668518335  1.0000
  O   O2        1.0  0.83290264372706  0.20377505324333442  0.6986059877061324  1.0000
  O   O3        1.0  0.9891057048583766  0.8550748038889737  0.972368839590804  1.0000
  O   O4        1.0  0.13031735576438183  0.33534502154886325  0.26304977189137174  1.0000
  O   O5        1.0  0.4325590390936302  0.9432601673012394  0.9125725924712741  1.0000
  O   O6        1.0  0.9818048956580147  0.16294638304582293  0.03471895455783883  1.0000
  O   O7        1.0  0.39248300379537354  0.5475245823678636  0.811690444632362  1.0000
  O   O8        1.0  0.12777085486041664  0.754576810196661  0.32995131405637135  1.0000
  O   O9        1.0  0.3650714040670331  0.3658706082837379  0.5611462283171622  1.0000
  O   O10       1.0  0.9277930913414056  0.6479633550772806  0.7159912571634626  1.0000
  O   O11       1.0  0.7248105624021293  0.5806657908717845  0.46494218410799887  1.0000
  O   O12       1.0  0.2925669011006516  0.9108396412790418  0.59274233671494  1.0000
  O   O13       1.0  0.5736660236410133  0.14324818182161753  0.09803693625451693  1.0000
  O   O14       1.0  0.6024196637396405  0.5605386721339104  0.19829634350295464  1.0000
data_image14
_chemical_formula_structural       V8O14
_chemical_formula_sum              "V8 O14"
_cell_length_a       5.550582121701734
_cell_length_b       6.786413640792483
_cell_length_c       6.98693040473207
_cell_angle_alpha    64.37373990390658
_cell_angle_beta     70.29505848782973
_cell_angle_gamma    75.17998095895898

_space_group_name_H-M_alt    "P 1"
_space_group_IT_number       1

loop_
  _space_group_symop_operation_xyz
  'x, y, z'

loop_
  _atom_site_type_symbol
  _atom_site_label
  _atom_site_symmetry_multiplicity
  _atom_site_fract_x
  _atom_site_fract_y
  _atom_site_fract_z
  _atom_site_occupancy
  V   V1        1.0  0.18454674055345863  0.1386115374734549  0.24566825320803135  1.0000
  V   V2        1.0  0.670930850675233  0.37867613644466397  0.4155196527160837  1.0000
  V   V3        1.0  0.25104425404689495  0.628255478622982  0.6180529812575388  1.0000
  V   V4        1.0  0.2913386544031423  0.6110411793270802  0.09936071603202654  1.0000
  V   V5        1.0  0.7367391675334589  0.37860816065304065  0.8595098288837268  1.0000
  V   V6        1.0  0.23092523550751023  0.08337337609992967  0.734147690184402  1.0000
  V   V7        1.0  0.8109280669182636  0.8929838613709901  0.24806820866495904  1.0000
  V   V8        1.0  0.8204033284225526  0.8976562470186382  0.7720596640528509  1.0000
  O   O1        1.0  0.8278875775709916  0.055910667215606384  0.4521325197706013  1.0000
  O   O2        1.0  0.8326822011637651  0.18420326521028973  0.7441854733139369  1.0000
  O   O3        1.0  0.07693680552828175  0.8415729906696789  0.9252734843767261  1.0000
  O   O4        1.0  0.06405725966288796  0.4286570102774184  0.2800861880667164  1.0000
  O   O5        1.0  0.5150078389204773  0.8442805042559887  0.8853266675440641  1.0000
  O   O6        1.0  0.9775193270566737  0.18956361066854918  0.06066447147089539  1.0000
  O   O7        1.0  0.4073698836676058  0.4760046819930463  0.8649024076003423  1.0000
  O   O8        1.0  0.1614239611376357  0.7940976113720463  0.3292325834810025  1.0000
  O   O9        1.0  0.2559613621631741  0.3625505314505724  0.5640953958481089  1.0000
  O   O10       1.0  0.8832883914691283  0.6267363954875198  0.6825388373875853  1.0000
  O   O11       1.0  0.6184199360363812  0.6463491061736463  0.4650971445536118  1.0000
  O   O12       1.0  0.2716557593688103  0.972851715933775  0.5506478162184331  1.0000
  O   O13       1.0  0.5249815155978179  0.10040795026006684  0.09856519094088897  1.0000
  O   O14       1.0  0.6039697754012422  0.44954195131435637  0.12064410908638874  1.0000
data_image15
_chemical_formula_structural       V8O14
_chemical_formula_sum              "V8 O14"
_cell_length_a       5.550582121701734
_cell_length_b       6.786413640792483
_cell_length_c       6.98693040473207
_cell_angle_alpha    64.37373990390658
_cell_angle_beta     70.29505848782973
_cell_angle_gamma    75.17998095895898

_space_group_name_H-M_alt    "P 1"
_space_group_IT_number       1

loop_
  _space_group_symop_operation_xyz
  'x, y, z'

loop_
  _atom_site_type_symbol
  _atom_site_label
  _atom_site_symmetry_multiplicity
  _atom_site_fract_x
  _atom_site_fract_y
  _atom_site_fract_z
  _atom_site_occupancy
  V   V1        1.0  0.19443986161529248  0.07497066076725993  0.23304605701772996  1.0000
  V   V2        1.0  0.7111858594271281  0.37762818021612854  0.36325829117392183  1.0000
  V   V3        1.0  0.2834762958477903  0.5873475489619704  0.6414450495990456  1.0000
  V   V4        1.0  0.26943195288178295  0.6349525975194243  0.10072841307969893  1.0000
  V   V5        1.0  0.7388112905679939  0.3901459510583908  0.8825068042176548  1.0000
  V   V6        1.0  0.1885949162967235  0.11069976217551268  0.7607963575378719  1.0000
  V   V7        1.0  0.7915313747097684  0.8641732037374571  0.28237617633210643  1.0000
  V   V8        1.0  0.8086669165056468  0.9301050524450926  0.7442455759094865  1.0000
  O   O1        1.0  0.8292498842375647  0.04232121661695316  0.42503841208105586  1.0000
  O   O2        1.0  0.8341493000230312  0.2347839694546366  0.6815532824867242  1.0000
  O   O3        1.0  0.9610785937667121  0.8811165703890343  0.9857329452211817  1.0000
  O   O4        1.0  0.0907980020156754  0.3805145006143382  0.2948208880355395  1.0000
  O   O5        1.0  0.42672559807672333  0.9029538963567191  0.8912969104441342  1.0000
  O   O6        1.0  0.06846923223541831  0.2099780131364199  0.9645457433152156  1.0000
  O   O7        1.0  0.37424102280768967  0.5351847414857953  0.8824663689159494  1.0000
  O   O8        1.0  0.1976042025403579  0.7583887830109451  0.29662339333763477  1.0000
  O   O9        1.0  0.3288934388440339  0.36644796591518614  0.5250466389682271  1.0000
  O   O10       1.0  0.8843886880918626  0.6295617619407682  0.6958485057703545  1.0000
  O   O11       1.0  0.6482444674307883  0.6331155169349507  0.46483773501184644  1.0000
  O   O12       1.0  0.21638261578707996  0.9215439995826163  0.5737420868817248  1.0000
  O   O13       1.0  0.5452847572169014  0.07945076132769341  0.15979028457868022  1.0000
  O   O14       1.0  0.6469682598296989  0.5230101713197451  0.1241553282879516  1.0000
data_image16
_chemical_formula_structural       V8O14
_chemical_formula_sum              "V8 O14"
_cell_length_a       5.550582121701734
_cell_length_b       6.786413640792483
_cell_length_c       6.98693040473207
_cell_angle_alpha    64.37373990390658
_cell_angle_beta     70.29505848782973
_cell_angle_gamma    75.17998095895898

_space_group_name_H-M_alt    "P 1"
_space_group_IT_number       1

loop_
  _space_group_symop_operation_xyz
  'x, y, z'

loop_
  _atom_site_type_symbol
  _atom_site_label
  _atom_site_symmetry_multiplicity
  _atom_site_fract_x
  _atom_site_fract_y
  _atom_site_fract_z
  _atom_site_occupancy
  V   V1        1.0  0.2202450035524085  0.11417378135763141  0.2160641631708626  1.0000
  V   V2        1.0  0.738968030652549  0.3531115454803998  0.4303299124264286  1.0000
  V   V3        1.0  0.27570251554466874  0.675194861566168  0.5601373557902666  1.0000
  V   V4        1.0  0.2851522612174913  0.6292678754948261  0.1263988756354343  1.0000
  V   V5        1.0  0.7115670021360941  0.3738419429211462  0.9080698387067399  1.0000
  V   V6        1.0  0.20442708356334482  0.08211702899828725  0.743802124333891  1.0000
  V   V7        1.0  0.7507476598891137  0.9237076297475655  0.29568448942260994  1.0000
  V   V8        1.0  0.7493536728962721  0.9194886131537457  0.8113187885461035  1.0000
  O   O1        1.0  0.8500456863765367  0.05101048413926669  0.4503496087008971  1.0000
  O   O2        1.0  0.8288035994146769  0.20944505826597773  0.7166120169790055  1.0000
  O   O3        1.0  0.9592921519369878  0.8021951410379529  0.9664781540053526  1.0000
  O   O4        1.0  0.11290700556320173  0.35819663791493594  0.23365631972012096  1.0000
  O   O5        1.0  0.4542543259789239  0.8435625058315285  0.8485929357880986  1.0000
  O   O6        1.0  0.9667484197846669  0.15449163769417118  0.06694165020980204  1.0000
  O   O7        1.0  0.40580350262652115  0.5481779184357948  0.8088087428023272  1.0000
  O   O8        1.0  0.16414005208693186  0.7775034012178995  0.2803650673575174  1.0000
  O   O9        1.0  0.3720254338024486  0.3198364916450236  0.5443793885475733  1.0000
  O   O10       1.0  0.924085861913781  0.5692884734567032  0.742666309766168  1.0000
  O   O11       1.0  0.6749880621472004  0.6338629041269692  0.36761870738405633  1.0000
  O   O12       1.0  0.3271566336793695  0.008753705099313613  0.481077788344517  1.0000
  O   O13       1.0  0.546766060652372  0.06922291569650638  0.034362894364765195  1.0000
  O   O14       1.0  0.6254100674656868  0.4355063491897266  0.14999879866266963  1.0000
data_image17
_chemical_formula_structural       V8O14
_chemical_formula_sum              "V8 O14"
_cell_length_a       5.550582121701734
_cell_length_b       6.786413640792483
_cell_length_c       6.98693040473207
_cell_angle_alpha    64.37373990390658
_cell_angle_beta     70.29505848782973
_cell_angle_gamma    75.17998095895898

_space_group_name_H-M_alt    "P 1"
_space_group_IT_number       1

loop_
  _space_group_symop_operation_xyz
  'x, y, z'

loop_
  _atom_site_type_symbol
  _atom_site_label
  _atom_site_symmetry_multiplicity
  _atom_site_fract_x
  _atom_site_fract_y
  _atom_site_fract_z
  _atom_site_occupancy
  V   V1        1.0  0.21349729168792864  0.1515434349961049  0.19206989978585634  1.0000
  V   V2        1.0  0.6742315595612641  0.37529640032016  0.43245264458940175  1.0000
  V   V3        1.0  0.2635407182522255  0.6217847782576781  0.5981437321179814  1.0000
  V   V4        1.0  0.30914323125023796  0.6202914141490018  0.09233637191474676  1.0000
  V   V5        1.0  0.7307160391018503  0.36934614051202797  0.9113946041787411  1.0000
  V   V6        1.0  0.23860068933156203  0.05455228838337313  0.7309480283780012  1.0000
  V   V7        1.0  0.7954590331166259  0.8851371811238586  0.29896241006635155  1.0000
  V   V8        1.0  0.8232729500139386  0.9173138357189343  0.7295997557212213  1.0000
  O   O1        1.0  0.7922742256278305  0.10502295387736424  0.4142805236630038  1.0000
  O   O2        1.0  0.8436342806539506  0.17849296852041588  0.7294439043683725  1.0000
  O   O3        1.0  0.966180562848269  0.8019895991195196  0.004697090335703091  1.0000
  O   O4        1.0  0.08730875217035082  0.39859555387233153  0.2682503899201851  1.0000
  O   O5        1.0  0.45587303041481425  0.8614145404211108  0.8774697164247256  1.0000
  O   O6        1.0  0.026219669939195608  0.17168228789663734  0.9911899341906995  1.0000
  O   O7        1.0  0.3940318824526502  0.5372331421347352  0.8583098640721  1.0000
  O   O8        1.0  0.11099912184689889  0.8015099703954381  0.344973218253279  1.0000
  O   O9        1.0  0.2953676061612556  0.3782726515470572  0.5394749556024362  1.0000
  O   O10       1.0  0.9251998142144051  0.6386595190808825  0.7394252227665206  1.0000
  O   O11       1.0  0.6609850559603782  0.641313035341888  0.48458264950836316  1.0000
  O   O12       1.0  0.2345722378334777  0.9628475167635081  0.4877368786313574  1.0000
  O   O13       1.0  0.5112886101780619  0.11361611712334042  0.09512130241225421  1.0000
  O   O14       1.0  0.5535068693788425  0.434644190721587  0.18710350408811763  1.0000
data_image18
_chemical_formula_structural       V8O14
_chemical_formula_sum              "V8 O14"
_cell_length_a       5.550582121701734
_cell_length_b       6.786413640792483
_cell_length_c       6.98693040473207
_cell_angle_alpha    64.37373990390658
_cell_angle_beta     70.29505848782973
_cell_angle_gamma    75.17998095895898

_space_group_name_H-M_alt    "P 1"
_space_group_IT_number       1

loop_
  _space_group_symop_operation_xyz
  'x, y, z'

loop_
  _atom_site_type_symbol
  _atom_site_label
  _atom_site_symmetry_multiplicity
  _atom_site_fract_x
  _atom_site_fract_y
  _atom_site_fract_z
  _atom_site_occupancy
  V   V1        1.0  0.22165914421321725  0.08969480018772505  0.25276116297054196  1.0000
  V   V2        1.0  0.7655729003368266  0.34335102897157177  0.3835483004756693  1.0000
  V   V3        1.0  0.32030962130572077  0.630250628184717  0.5986584473017985  1.0000
  V   V4        1.0  0.27824174682400143  0.6605163473035626  0.09303300794451312  1.0000
  V   V5        1.0  0.7179802133385506  0.3804938125771282  0.9117470785813842  1.0000
  V   V6        1.0  0.14443184252582558  0.13384509484350232  0.7586314709609097  1.0000
  V   V7        1.0  0.800268754248984  0.9130197987081433  0.2503692735456657  1.0000
  V   V8        1.0  0.7787014408178298  0.8492853395165209  0.7655594129197245  1.0000
  O   O1        1.0  0.8129772188279434  0.03814994673804683  0.4307747137739514  1.0000
  O   O2        1.0  0.8079059176537801  0.152158468185196  0.7064146723286021  1.0000
  O   O3        1.0  0.9529480183835498  0.8335514767385449  0.9689902775824284  1.0000
  O   O4        1.0  0.07249842454865212  0.3863908728906993  0.29152274542698786  1.0000
  O   O5        1.0  0.4316868276722229  0.9073064618923862  0.9185928010357273  1.0000
  O   O6        1.0  0.9903731938339772  0.16817075731249068  0.05612733968253943  1.0000
  O   O7        1.0  0.4031561378663665  0.5600272877139153  0.8278822106155926  1.0000
  O   O8        1.0  0.126403975232839  0.7740476060110993  0.31247589412063415  1.0000
  O   O9        1.0  0.35179816386668583  0.3839379363434989  0.5254115066538795  1.0000
  O   O10       1.0  0.9031079059588732  0.5621634394615609  0.7205349854200939  1.0000
  O   O11       1.0  0.6649385724224036  0.6530873178690725  0.38747813408378  1.0000
  O   O12       1.0  0.2649622543192763  0.9673164978405269  0.5364725932537848  1.0000
  O   O13       1.0  0.566762241034897  0.12119854012683362  0.08604214070110978  1.0000
  O   O14       1.0  0.5714752554053626  0.5046217834994315  0.15764044726461024  1.0000
data_image19
_chemical_formula_structural       V8O14
_chemical_formula_sum              "V8 O14"
_cell_length_a       5.550582121701734
_cell_length_b       6.786413640792483
_cell_length_c       6.98693040473207
_cell_angle_alpha    64.37373990390658
_cell_angle_beta     70.29505848782973
_cell_angle_gamma    75.17998095895898

_space_group_name_H-M_alt    "P 1"
_space_group_IT_number       1

loop_
  _space_group_symop_operation_xyz
  'x, y, z'

loop_
  _atom_site_type_symbol
  _atom_site_label
  _atom_site_symmetry_multiplicity
  _atom_site_fract_x
  _atom_site_fract_y
  _atom_site_fract_z
  _atom_site_occupancy
  V   V1        1.0  0.17063419993028878  0.11895579430386376  0.24531212152607143  1.0000
  V   V2        1.0  0.710526935164827  0.3919920511089708  0.39953658660471497  1.0000
  V   V3        1.0  0.27422067670486794  0.6434244346610727  0.6030450363430394  1.0000
  V   V4        1.0  0.3170511930938848  0.6129157575108697  0.09359567260329027  1.0000
  V   V5        1.0  0.7503935005486976  0.34525480190547947  0.915568801294191  1.0000
  V   V6        1.0  0.21468487246625506  0.11695532990126183  0.7382060976826146  1.0000
  V   V7        1.0  0.8172645284477364  0.926378844329833  0.242536977907771  1.0000
  V   V8        1.0  0.7947372818296926  0.8046070048114613  0.851923085756952  1.0000
  O   O1        1.0  0.7256589170148093  0.09331877759184173  0.39090265885393166  1.0000
  O   O2        1.0  0.7760295131797292  0.23316970789270358  0.670349230434368  1.0000
  O   O3        1.0  0.0017572956012403829  0.8215820632618667  0.003293841214323301  1.0000
  O   O4        1.0  0.0950197716198114  0.41247130600255166  0.24223453025351366  1.0000
  O   O5        1.0  0.46871078618925494  0.919264282888355  0.7818158211766392  1.0000
  O   O6        1.0  0.07432247491458849  0.19338172794566208  0.9749897344213211  1.0000
  O   O7        1.0  0.40010275472848217  0.517070420433203  0.8391748098277021  1.0000
  O   O8        1.0  0.1393617009679005  0.7411920453237365  0.3385817678061623  1.0000
  O   O9        1.0  0.3547522339151695  0.3706021325733021  0.5166200063467932  1.0000
  O   O10       1.0  0.8621882143175661  0.6188668834231196  0.7005792468007246  1.0000
  O   O11       1.0  0.5967369624644866  0.6837268857889589  0.4398883593755384  1.0000
  O   O12       1.0  0.10036267650037388  0.9140674639114372  0.6070648232507575  1.0000
  O   O13       1.0  0.5378597993907418  0.1065173599531543  0.08273823001450076  1.0000
  O   O14       1.0  0.7161647994247261  0.5174454168499601  0.1023489109645805  1.0000
data_image20
_chemical_formula_structural       V8O14
_chemical_formula_sum              "V8 O14"
_cell_length_a       5.550582121701734
_cell_length_b       6.786413640792483
_cell_length_c       6.98693040473207
_cell_angle_alpha    64.37373990390658
_cell_angle_beta     70.29505848782973
_cell_angle_gamma    75.17998095895898

_space_group_name_H-M_alt    "P 1"
_space_group_IT_number       1

loop_
  _space_group_symop_operation_xyz
  'x, y, z'

loop_
  _atom_site_type_symbol
  _atom_site_label
  _atom_site_symmetry_multiplicity
  _atom_site_fract_x
  _atom_site_fract_y
  _atom_site_fract_z
  _atom_site_occupancy
  V   V1        1.0  0.2309180905674617  0.15718068974055813  0.20820503783517913  1.0000
  V   V2        1.0  0.7284224837416339  0.3879304159309257  0.40184771502677236  1.0000
  V   V3        1.0  0.2964264196045706  0.6664352488801476  0.5755247961330549  1.0000
  V   V4        1.0  0.2270103967110441  0.6195975938728956  0.0966445397072548  1.0000
  V   V5        1.0  0.7324043826971491  0.3763939438741735  0.893275615150001  1.0000
  V   V6        1.0  0.2520886322717871  0.11894138323144193  0.6963732648679289  1.0000
  V   V7        1.0  0.8262822396811671  0.9124690961707957  0.2589891695387197  1.0000
  V   V8        1.0  0.7591664840993456  0.8998563223048686  0.7882545829354721  1.0000
  O   O1        1.0  0.7194165913251209  0.9715950145696999  0.5094373648931184  1.0000
  O   O2        1.0  0.8411761600600381  0.16218998024740885  0.7411155580111835  1.0000
  O   O3        1.0  0.920414537138912  0.7623575736533604  0.021121718715958693  1.0000
  O   O4        1.0  0.05049568061912067  0.38897694669347066  0.26080982522654356  1.0000
  O   O5        1.0  0.4295268377852577  0.8303250685341774  0.963997532470784  1.0000
  O   O6        1.0  0.05953261055248249  0.20038713645714382  0.9650432023245173  1.0000
  O   O7        1.0  0.3523252379677287  0.47378022126093855  0.9258943012950046  1.0000
  O   O8        1.0  0.13673771468617438  0.8261339755113826  0.30092786295071916  1.0000
  O   O9        1.0  0.3451777454755051  0.40462191117449814  0.4774766098711143  1.0000
  O   O10       1.0  0.9040051650953393  0.6132925686082208  0.7597097424246213  1.0000
  O   O11       1.0  0.6932033728159139  0.6205907840820087  0.48237511971986363  1.0000
  O   O12       1.0  0.1982676223639149  0.9251489753831996  0.5706590029202551  1.0000
  O   O13       1.0  0.5714070209574057  0.038002781328293045  0.09118988361396677  1.0000
  O   O14       1.0  0.6146035738933046  0.36046917778372123  0.15980720590015393  1.0000
data_image21
_chemical_formula_structural       V8O14
_chemical_formula_sum              "V8 O14"
_cell_length_a       5.550582121701734
_cell_length_b       6.786413640792483
_cell_length_c       6.98693040473207
_cell_angle_alpha    64.37373990390658
_cell_angle_beta     70.29505848782973
_cell_angle_gamma    75.17998095895898

_space_group_name_H-M_alt    "P 1"
_space_group_IT_number       1

loop_
  _space_group_symop_operation_xyz
  'x, y, z'

loop_
  _atom_site_type_symbol
  _atom_site_label
  _atom_site_symmetry_multiplicity
  _atom_site_fract_x
  _atom_site_fract_y
  _atom_site_fract_z
  _atom_site_occupancy
  V   V1        1.0  0.20926223859506454  0.09879699223272703  0.23354989539909307  1.0000
  V   V2        1.0  0.746678614049995  0.37398485596927095  0.3821042953556076  1.0000
  V   V3        1.0  0.2808479165066212  0.6179422200456577  0.6186355161178534  1.0000
  V   V4        1.0  0.25028721783835267  0.6268068876888593  0.11945559554709001  1.0000
  V   V5        1.0  0.7221010535021616  0.37776079235134863  0.928394364018657  1.0000
  V   V6        1.0  0.19882658660527175  0.078144032304086  0.6916638171080901  1.0000
  V   V7        1.0  0.8288370238984883  0.891466096269467  0.2577814961233986  1.0000
  V   V8        1.0  0.730574152280132  0.9212741872878812  0.8125007916986563  1.0000
  O   O1        1.0  0.7186077664376682  0.06765732628110975  0.4251636821901074  1.0000
  O   O2        1.0  0.8605096475332926  0.20147786767204978  0.6864045530838366  1.0000
  O   O3        1.0  0.9781869570280399  0.8435202739388798  0.969381838235824  1.0000
  O   O4        1.0  0.09041061935524523  0.3952287392859301  0.2626277671410647  1.0000
  O   O5        1.0  0.4302919920554894  0.8982486384065662  0.8680531737723804  1.0000
  O   O6        1.0  0.05370574255819386  0.1880660941348574  0.0164776486125529  1.0000
  O   O7        1.0  0.3733999472640662  0.5275058522678048  0.8733307683113376  1.0000
  O   O8        1.0  0.15283069011816267  0.7564463794700799  0.3472065622569638  1.0000
  O   O9        1.0  0.36105500745312463  0.36140464629845737  0.5839717280280566  1.0000
  O   O10       1.0  0.9392945998630592  0.6254934568346598  0.6855600350410117  1.0000
  O   O11       1.0  0.6675489883579817  0.6416834924081495  0.4021027651956375  1.0000
  O   O12       1.0  0.24930016594176202  0.928395434256486  0.5229407754580518  1.0000
  O   O13       1.0  0.5648098202203502  0.09493788605921291  0.09349280758962893  1.0000
  O   O14       1.0  0.6694496948329356  0.5352213594591293  0.09857904073229234  1.0000
data_image22
_chemical_formula_structural       V8O14
_chemical_formula_sum              "V8 O14"
_cell_length_a       5.550582121701734
_cell_length_b       6.786413640792483
_cell_length_c       6.98693040473207
_cell_angle_alpha    64.37373990390658
_cell_angle_beta     70.29505848782973
_cell_angle_gamma    75.17998095895898

_space_group_name_H-M_alt    "P 1"
_space_group_IT_number       1

loop_
  _space_group_symop_operation_xyz
  'x, y, z'

loop_
  _atom_site_type_symbol
  _atom_site_label
  _atom_site_symmetry_multiplicity
  _atom_site_fract_x
  _atom_site_fract_y
  _atom_site_fract_z
  _atom_site_occupancy
  V   V1        1.0  0.14874595495479137  0.05393399968946478  0.2844517534783046  1.0000
  V   V2        1.0  0.7738191886286221  0.4048640123568247  0.3755360185300576  1.0000
  V   V3        1.0  0.296621006466781  0.665355223124407  0.6085354577355043  1.0000
  V   V4        1.0  0.24922040323593184  0.6245178122329837  0.09460674100406849  1.0000
  V   V5        1.0  0.675309425419248  0.38297238205870804  0.9148623031574613  1.0000
  V   V6        1.0  0.19876496721225656  0.1550118942281862  0.7157431684895564  1.0000
  V   V7        1.0  0.8286644764214005  0.9020837827084828  0.21982303191285418  1.0000
  V   V8        1.0  0.7982052491110813  0.8594267844429514  0.7509469738770405  1.0000
  O   O1        1.0  0.7822567968389698  0.06124868395576212  0.4157584580901607  1.0000
  O   O2        1.0  0.8837626975477116  0.17487778164726775  0.6911549599204291  1.0000
  O   O3        1.0  0.9133771839830732  0.777126050794801  0.020672183160882707  1.0000
  O   O4        1.0  0.2159107863394899  0.3491159872563856  0.27311322387701603  1.0000
  O   O5        1.0  0.41243820172234325  0.8599083066843162  0.8911753968613656  1.0000
  O   O6        1.0  0.9804539333536194  0.16520981120585174  0.02204911697610421  1.0000
  O   O7        1.0  0.33884876446418705  0.5216592107437047  0.8672363276307716  1.0000
  O   O8        1.0  0.18696456707513687  0.7838716686081888  0.26492064284792904  1.0000
  O   O9        1.0  0.4665412182031314  0.33739764203308237  0.6234887000680992  1.0000
  O   O10       1.0  0.9160161583984785  0.5889625024652282  0.7246057338756214  1.0000
  O   O11       1.0  0.657950138256468  0.6979503334271776  0.43609410979408914  1.0000
  O   O12       1.0  0.20670907418506737  0.9517440795853027  0.5837316624657352  1.0000
  O   O13       1.0  0.537613238740504  0.1166318883589257  0.12439402859369067  1.0000
  O   O14       1.0  0.597440297981788  0.4885319562870874  0.14841192097612407  1.0000
data_image23
_chemical_formula_structural       V8O14
_chemical_formula_sum              "V8 O14"
_cell_length_a       5.550582121701734
_cell_length_b       6.786413640792483
_cell_length_c       6.98693040473207
_cell_angle_alpha    64.37373990390658
_cell_angle_beta     70.29505848782973
_cell_angle_gamma    75.17998095895898

_space_group_name_H-M_alt    "P 1"
_space_group_IT_number       1

loop_
  _space_group_symop_operation_xyz
  'x, y, z'

loop_
  _atom_site_type_symbol
  _atom_site_label
  _atom_site_symmetry_multiplicity
  _atom_site_fract_x
  _atom_site_fract_y
  _atom_site_fract_z
  _atom_site_occupancy
  V   V1        1.0  0.19367704239700528  0.10597157321148917  0.27648319294539125  1.0000
  V   V2        1.0  0.7021697249001433  0.37360921303947814  0.420716291471043  1.0000
  V   V3        1.0  0.27868886550578287  0.6251975193608048  0.565308692409253  1.0000
  V   V4        1.0  0.29756423749138894  0.6257609409081215  0.06797102348150975  1.0000
  V   V5        1.0  0.710092306898727  0.35943821121251907  0.9107070393258724  1.0000
  V   V6        1.0  0.18510004406176234  0.10361680861101144  0.7446006953738733  1.0000
  V   V7        1.0  0.7974145256948131  0.9160525010203465  0.26500447297870156  1.0000
  V   V8        1.0  0.8224426893977871  0.9049905970556077  0.7577437210701501  1.0000
  O   O1        1.0  0.7420398602199679  0.08552590271421244  0.44775596642340837  1.0000
  O   O2        1.0  0.8123324349728402  0.2325346114813603  0.7096770259529398  1.0000
  O   O3        1.0  0.9651941802531558  0.7834488417491796  0.022115027868191195  1.0000
  O   O4        1.0  0.09589934486452384  0.36515707267611075  0.23041331628149264  1.0000
  O   O5        1.0  0.5056895526648125  0.939485010124097  0.8766460860704183  1.0000
  O   O6        1.0  0.9955026284451535  0.18738171471214504  0.015224201599235971  1.0000
  O   O7        1.0  0.4625231515241014  0.507970152310791  0.8004750542088682  1.0000
  O   O8        1.0  0.18554593111190687  0.79870718343202  0.2800968092535205  1.0000
  O   O9        1.0  0.3409742267496494  0.3121860543986519  0.5618129717904993  1.0000
  O   O10       1.0  0.9419936288582936  0.5922655273117228  0.7497575500476885  1.0000
  O   O11       1.0  0.6127543666612372  0.6767511303490442  0.37142830920784936  1.0000
  O   O12       1.0  0.2527740056361774  0.9130753199854773  0.5735749136500176  1.0000
  O   O13       1.0  0.5316704138714398  0.1136708816848836  0.15127795203481867  1.0000
  O   O14       1.0  0.6034477455229592  0.4747413548178674  0.1501702018411987  1.0000
data_image24
_chemical_formula_structural       V8O14
_chemical_formula_sum              "V8 O14"
_cell_length_a       5.550582121701734
_cell_length_b       6.786413640792483
_cell_length_c       6.98693040473207
_cell_angle_alpha    64.37373990390658
_cell_angle_beta     70.29505848782973
_cell_angle_gamma    75.17998095895898

_space_group_name_H-M_alt    "P 1"
_space_group_IT_number       1

loop_
  _space_group_symop_operation_xyz
  'x, y, z'

loop_
  _atom_site_type_symbol
  _atom_site_label
  _atom_site_symmetry_multiplicity
  _atom_site_fract_x
  _atom_site_fract_y
  _atom_site_fract_z
  _atom_site_occupancy
  V   V1        1.0  0.20109069839585264  0.10346759285638722  0.20369514067134886  1.0000
  V   V2        1.0  0.6868226679695182  0.3831745213570023  0.44051199127390783  1.0000
  V   V3        1.0  0.27724171706056583  0.6302317026220835  0.6135648787318303  1.0000
  V   V4        1.0  0.2877889473299929  0.6578307967750043  0.09622935653780203  1.0000
  V   V5        1.0  0.6958786157918153  0.3647700764605035  0.9609308112458053  1.0000
  V   V6        1.0  0.20012483121785224  0.11073958557931293  0.7224529013961539  1.0000
  V   V7        1.0  0.8209612745523671  0.8479360505050579  0.25713361732701945  1.0000
  V   V8        1.0  0.7990986925536239  0.9236680759881952  0.7285234270750146  1.0000
  O   O1        1.0  0.750052052448768  0.029405648766945965  0.43837978723453586  1.0000
  O   O2        1.0  0.8122740459861814  0.211322181977078  0.663741847281817  1.0000
  O   O3        1.0  0.9784357150970104  0.7947765282074243  0.9746619831257678  1.0000
  O   O4        1.0  0.10286518239395175  0.34304467478332235  0.2731408947665632  1.0000
  O   O5        1.0  0.446903991129464  0.9541252068136916  0.8902374645893281  1.0000
  O   O6        1.0  0.07736867544061207  0.19996484832112765  0.9698761698306814  1.0000
  O   O7        1.0  0.38981580938275817  0.5135772659220967  0.8436841105547045  1.0000
  O   O8        1.0  0.20525685585702488  0.8176498882736501  0.29861338903354523  1.0000
  O   O9        1.0  0.33054409483101477  0.38143538214163114  0.4918786657908002  1.0000
  O   O10       1.0  0.9429700822186784  0.5813118530861584  0.7055239534094933  1.0000
  O   O11       1.0  0.6673651175896136  0.5951488543500635  0.49582915766603813  1.0000
  O   O12       1.0  0.2174546447668668  0.9005338206473914  0.5809230891114413  1.0000
  O   O13       1.0  0.5659638308168373  0.07288783449246163  0.11415624691583764  1.0000
  O   O14       1.0  0.6170912288390834  0.5610492137912068  0.15524224484766153  1.0000
data_image25
_chemical_formula_structural       V8O14
_chemical_formula_sum              "V8 O14"
_cell_length_a       5.550582121701734
_cell_length_b       6.786413640792483
_cell_length_c       6.98693040473207
_cell_angle_alpha    64.37373990390658
_cell_angle_beta     70.29505848782973
_cell_angle_gamma    75.17998095895898

_space_group_name_H-M_alt    "P 1"
_space_group_IT_number       1

loop_
  _space_group_symop_operation_xyz
  'x, y, z'

loop_
  _atom_site_type_symbol
  _atom_site_label
  _atom_site_symmetry_multiplicity
  _atom_site_fract_x
  _atom_site_fract_y
  _atom_site_fract_z
  _atom_site_occupancy
  V   V1        1.0  0.19565715061124983  0.17258842295015522  0.20189422843674718  1.0000
  V   V2        1.0  0.7097464230856505  0.36643373762938264  0.3910377236368949  1.0000
  V   V3        1.0  0.3201261710896461  0.6331935430878182  0.6214066409179111  1.0000
  V   V4        1.0  0.22751126367461078  0.6571158372409849  0.11156955448038967  1.0000
  V   V5        1.0  0.7444573672186555  0.3812179472159865  0.8661583286480653  1.0000
  V   V6        1.0  0.19349812453155255  0.08489980608874866  0.746480485700921  1.0000
  V   V7        1.0  0.7783568633826533  0.9049006057060891  0.2522821146903968  1.0000
  V   V8        1.0  0.7902647372669918  0.9039960514764067  0.7591187653204486  1.0000
  O   O1        1.0  0.7746895540892347  0.02985905651972401  0.4366529643456916  1.0000
  O   O2        1.0  0.8574481906117543  0.22200485032079062  0.6807949685277647  1.0000
  O   O3        1.0  0.9450912241975911  0.7526762649764306  0.04057307481662331  1.0000
  O   O4        1.0  0.07114488328211727  0.3866621051362695  0.2994991940342247  1.0000
  O   O5        1.0  0.4545745293431876  0.8668933709548879  0.8383728500806358  1.0000
  O   O6        1.0  0.019485805162868998  0.14888379373788885  0.008689295941452397  1.0000
  O   O7        1.0  0.35251160658867736  0.5024416546001218  0.9038734788949604  1.0000
  O   O8        1.0  0.17358444698056782  0.7002647397302546  0.3464831227106189  1.0000
  O   O9        1.0  0.41518207767696447  0.33104355920283  0.5839093414454379  1.0000
  O   O10       1.0  0.9685160977670175  0.631998026878543  0.7593681638331176  1.0000
  O   O11       1.0  0.684031084018545  0.6409914734385616  0.42234618785158695  1.0000
  O   O12       1.0  0.2272501854811808  0.9411335098822036  0.5302440809483875  1.0000
  O   O13       1.0  0.5701405933364964  0.07579524931950743  0.09401754931815995  1.0000
  O   O14       1.0  0.622152596177633  0.4683996441639148  0.16785691861092078  1.0000
data_image26
_chemical_formula_structural       V8O14
_chemical_formula_sum              "V8 O14"
_cell_length_a       5.550582121701734
_cell_length_b       6.786413640792483
_cell_length_c       6.98693040473207
_cell_angle_alpha    64.37373990390658
_cell_angle_beta     70.29505848782973
_cell_angle_gamma    75.17998095895898

_space_group_name_H-M_alt    "P 1"
_space_group_IT_number       1

loop_
  _space_group_symop_operation_xyz
  'x, y, z'

loop_
  _atom_site_type_symbol
  _atom_site_label
  _atom_site_symmetry_multiplicity
  _atom_site_fract_x
  _atom_site_fract_y
  _atom_site_fract_z
  _atom_site_occupancy
  V   V1        1.0  0.25764519456716484  0.07365170503893932  0.24988491396529805  1.0000
  V   V2        1.0  0.700965177969312  0.38599702362246613  0.431931682449761  1.0000
  V   V3        1.0  0.21676978919073794  0.6274343307084769  0.5952918692593294  1.0000
  V   V4        1.0  0.2602466652134534  0.5941271386150694  0.09979008628446363  1.0000
  V   V5        1.0  0.7211456134389598  0.3807806043901746  0.9183400113429304  1.0000
  V   V6        1.0  0.14442769590966226  0.10989871082795175  0.7306658101613096  1.0000
  V   V7        1.0  0.9315728347886153  0.9060005736817286  0.23237246950056714  1.0000
  V   V8        1.0  0.7658372254592796  0.9123841821740679  0.7470332919439601  1.0000
  O   O1        1.0  0.7838199517381192  0.06395225419968956  0.44041694050376123  1.0000
  O   O2        1.0  0.7485106007959503  0.20935797934057998  0.7707701498277589  1.0000
  O   O3        1.0  0.983632549360324  0.7984985652785054  0.9534136661302447  1.0000
  O   O4        1.0  0.09115852689846636  0.37436759468155484  0.319166151852951  1.0000
  O   O5        1.0  0.4309892543034489  0.9238830391482955  0.8298286075173769  1.0000
  O   O6        1.0  0.031163180215308946  0.19439533405454756  0.995339243715889  1.0000
  O   O7        1.0  0.3393249114661259  0.5248329024236541  0.8388838667797583  1.0000
  O   O8        1.0  0.2687405704851888  0.7360970286753603  0.2640548720745799  1.0000
  O   O9        1.0  0.34154946020016946  0.3577839860826034  0.5669427960680334  1.0000
  O   O10       1.0  0.8894630375116456  0.6338596829705908  0.7323114562962106  1.0000
  O   O11       1.0  0.6919179277337995  0.6859723751419216  0.3766496036541556  1.0000
  O   O12       1.0  0.21397209069370218  0.9268696449076178  0.5521529817166946  1.0000
  O   O13       1.0  0.587881294082121  0.12818495856637116  0.14325222987701486  1.0000
  O   O14       1.0  0.6154120353450165  0.4954497323203727  0.1566367754529064  1.0000
data_image27
_chemical_formula_structural       V8O14
_chemical_formula_sum              "V8 O14"
_cell_length_a       5.550582121701734
_cell_length_b       6.786413640792483
_cell_length_c       6.98693040473207
_cell_angle_alpha    64.37373990390658
_cell_angle_beta     70.29505848782973
_cell_angle_gamma    75.17998095895898

_space_group_name_H-M_alt    "P 1"
_space_group_IT_number       1

loop_
  _space_group_symop_operation_xyz
  'x, y, z'

loop_
  _atom_site_type_symbol
  _atom_site_label
  _atom_site_symmetry_multiplicity
  _atom_site_fract_x
  _atom_site_fract_y
  _atom_site_fract_z
  _atom_site_occupancy
  V   V1        1.0  0.17502886325243175  0.09474913539317777  0.24795897551841592  1.0000
  V   V2        1.0  0.7386271572268673  0.39716145384243273  0.3858754296159053  1.0000
  V   V3        1.0  0.3034211965885544  0.6145271145263032  0.5737322936528627  1.0000
  V   V4        1.0  0.2979761106360919  0.6608923963672073  0.09458530452652661  1.0000
  V   V5        1.0  0.6796652533894673  0.3789010709143059  0.8895436163695503  1.0000
  V   V6        1.0  0.18866840295058238  0.09480101380926977  0.7300353154428227  1.0000
  V   V7        1.0  0.8021653440212663  0.9141579517090869  0.2656934705757808  1.0000
  V   V8        1.0  0.8528938779328512  0.8554835448381726  0.7719462552346619  1.0000
  O   O1        1.0  0.8591286854905277  0.05355279163151127  0.41460074887138454  1.0000
  O   O2        1.0  0.8565213259117481  0.26759734995385603  0.6424448992009442  1.0000
  O   O3        1.0  0.9096094006137581  0.8256894686444961  0.014415903311041589  1.0000
  O   O4        1.0  0.06348202383250043  0.4168114566035721  0.23251244643445684  1.0000
  O   O5        1.0  0.477229683935558  0.9133156734819717  0.9068023834989128  1.0000
  O   O6        1.0  0.927356402270512  0.19514966063483524  0.03946921211740098  1.0000
  O   O7        1.0  0.36843566087521945  0.4920320065957998  0.8634535083365145  1.0000
  O   O8        1.0  0.14083213966887068  0.7621164769389978  0.35085577318455635  1.0000
  O   O9        1.0  0.3585233652548979  0.34627469570730274  0.5676114744076224  1.0000
  O   O10       1.0  0.8991329082044004  0.5528613925397754  0.7673301406031333  1.0000
  O   O11       1.0  0.6439010323620827  0.6196073287894285  0.4795752258952109  1.0000
  O   O12       1.0  0.2712007307372433  0.9101364693859799  0.54583104235689  1.0000
  O   O13       1.0  0.5184405900481898  0.14650446126566688  0.12524765249986433  1.0000
  O   O14       1.0  0.5977237182364288  0.4899442017061063  0.13347750078375173  1.0000
data_image28
_chemical_formula_structural       V8O14
_chemical_formula_sum              "V8 O14"
_cell_length_a       5.550582121701734
_cell_length_b       6.786413640792483
_cell_length_c       6.98693040473207
_cell_angle_alpha    64.37373990390658
_cell_angle_beta     70.29505848782973
_cell_angle_gamma    75.17998095895898

_space_group_name_H-M_alt    "P 1"
_space_group_IT_number       1

loop_
  _space_group_symop_operation_xyz
  'x, y, z'

loop_
  _atom_site_type_symbol
  _atom_site_label
  _atom_site_symmetry_multiplicity
  _atom_site_fract_x
  _atom_site_fract_y
  _atom_site_fract_z
  _atom_site_occupancy
  V   V1        1.0  0.22942712217838954  0.1188943441837598  0.22569707998796867  1.0000
  V   V2        1.0  0.6951486000101107  0.3202907111729166  0.421597746197133  1.0000
  V   V3        1.0  0.3226277392001721  0.6656859867768167  0.5804455091233814  1.0000
  V   V4        1.0  0.2664598973775202  0.6180175747711546  0.12012331286560185  1.0000
  V   V5        1.0  0.7206434987487172  0.3571299823682664  0.9017808807828148  1.0000
  V   V6        1.0  0.15941326567030947  0.13706474364697416  0.7301128202959072  1.0000
  V   V7        1.0  0.7790198803073279  0.8794072825985754  0.2497147179403044  1.0000
  V   V8        1.0  0.8481276004945631  0.9283697643270498  0.7301161639889739  1.0000
  O   O1        1.0  0.7531341565806813  0.022689008781458377  0.46497270861067774  1.0000
  O   O2        1.0  0.8219055931254516  0.236775454377063  0.6991642128790193  1.0000
  O   O3        1.0  0.9995053717941351  0.8247234825419264  0.9852917064381865  1.0000
  O   O4        1.0  0.0856146719479207  0.3714355200745172  0.261144220555358  1.0000
  O   O5        1.0  0.4316052231866922  0.8972212196151084  0.9075260156328936  1.0000
  O   O6        1.0  0.04068103959734856  0.20680022130657896  0.05815781149804248  1.0000
  O   O7        1.0  0.42213883560787235  0.49116969960253903  0.8743028876403584  1.0000
  O   O8        1.0  0.18257850226577177  0.7927083167551852  0.29293220019852534  1.0000
  O   O9        1.0  0.3088836309223685  0.3778337857338204  0.5452318459549403  1.0000
  O   O10       1.0  0.9319532561187263  0.6480347969107908  0.7276830145595017  1.0000
  O   O11       1.0  0.621669034305114  0.5983524612158634  0.4339354940083971  1.0000
  O   O12       1.0  0.20382456651432784  0.9390754706714208  0.5842179352826568  1.0000
  O   O13       1.0  0.5505563514925224  0.0888116741965439  0.08680611224122659  1.0000
  O   O14       1.0  0.591613021605393  0.43891269337158434  0.16169364631277897  1.0000
data_image29
_chemical_formula_structural       V8O14
_chemical_formula_sum              "V8 O14"
_cell_length_a       5.550582121701734
_cell_length_b       6.786413640792483
_cell_length_c       6.98693040473207
_cell_angle_alpha    64.37373990390658
_cell_angle_beta     70.29505848782973
_cell_angle_gamma    75.17998095895898

_space_group_name_H-M_alt    "P 1"
_space_group_IT_number       1

loop_
  _space_group_symop_operation_xyz
  'x, y, z'

loop_
  _atom_site_type_symbol
  _atom_site_label
  _atom_site_symmetry_multiplicity
  _atom_site_fract_x
  _atom_site_fract_y
  _atom_site_fract_z
  _atom_site_occupancy
  V   V1        1.0  0.19449007138858096  0.05737038689871234  0.27036567117444954  1.0000
  V   V2        1.0  0.7832546083160958  0.4146101001106021  0.38580512869802736  1.0000
  V   V3        1.0  0.2532309229217735  0.6045963202574536  0.6015499202686099  1.0000
  V   V4        1.0  0.2507641429220526  0.5780160562989729  0.08504510038779145  1.0000
  V   V5        1.0  0.7114828141686561  0.3709827484433302  0.9104987969672667  1.0000
  V   V6        1.0  0.15680145136486218  0.10092277299983839  0.7094801507412364  1.0000
  V   V7        1.0  0.8162995089246706  0.9164808549978353  0.2607338472684453  1.0000
  V   V8        1.0  0.8066829095427309  0.8777341449800451  0.7835186852754997  1.0000
  O   O1        1.0  0.7837739621497177  0.0671646082874461  0.4265653284523346  1.0000
  O   O2        1.0  0.8211561777100685  0.27662939514945617  0.6725556137560473  1.0000
  O   O3        1.0  0.9763093585961536  0.831258761482361  0.002814672246594485  1.0000
  O   O4        1.0  0.16086101768156552  0.3534083240065998  0.332288423666476  1.0000
  O   O5        1.0  0.49161925793752154  0.9737446847129002  0.8390157728096859  1.0000
  O   O6        1.0  0.9979378016851085  0.23480933927498054  0.03766633001724264  1.0000
  O   O7        1.0  0.4295794143755187  0.5588707378966761  0.7924178376421122  1.0000
  O   O8        1.0  0.2072352585198229  0.755466521725833  0.25643683562177466  1.0000
  O   O9        1.0  0.40987300627533185  0.3390410799621546  0.5572088165072029  1.0000
  O   O10       1.0  0.8854544725821683  0.627721345312915  0.7147224959409141  1.0000
  O   O11       1.0  0.5847378779877499  0.716823091787019  0.4213625436413988  1.0000
  O   O12       1.0  0.19293306190870632  0.890554438389053  0.5958468218245935  1.0000
  O   O13       1.0  0.5262916591803537  0.10867916175520975  0.15592758254241568  1.0000
  O   O14       1.0  0.6236445001518912  0.5407651900387851  0.1281712038632189  1.0000
data_image30
_chemical_formula_structural       V8O14
_chemical_formula_sum              "V8 O14"
_cell_length_a       5.550582121701734
_cell_length_b       6.786413640792483
_cell_length_c       6.98693040473207
_cell_angle_alpha    64.37373990390658
_cell_angle_beta     70.29505848782973
_cell_angle_gamma    75.17998095895898

_space_group_name_H-M_alt    "P 1"
_space_group_IT_number       1

loop_
  _space_group_symop_operation_xyz
  'x, y, z'

loop_
  _atom_site_type_symbol
  _atom_site_label
  _atom_site_symmetry_multiplicity
  _atom_site_fract_x
  _atom_site_fract_y
  _atom_site_fract_z
  _atom_site_occupancy
  V   V1        1.0  0.24972534785506117  0.07925700718169865  0.22613498764420853  1.0000
  V   V2        1.0  0.7224504776916728  0.3270173276970993  0.41233783947748176  1.0000
  V   V3        1.0  0.3590348019879974  0.6541493809375207  0.5942928570561871  1.0000
  V   V4        1.0  0.20009366597491632  0.6360886814531395  0.12590895379246111  1.0000
  V   V5        1.0  0.724760465190035  0.4106363756937158  0.8630306943764519  1.0000
  V   V6        1.0  0.1946488380155823  0.07164796101941737  0.7661604661998398  1.0000
  V   V7        1.0  0.7488450090783937  0.903180748336528  0.26811792367001247  1.0000
  V   V8        1.0  0.7608200275621484  0.9099361737200167  0.7942318914773421  1.0000
  O   O1        1.0  0.8655045219491989  0.06548857869451455  0.3935016611229762  1.0000
  O   O2        1.0  0.8161138668453035  0.21241268928051693  0.6873893601327284  1.0000
  O   O3        1.0  0.9243571907368122  0.8347193115918617  0.009910542567610925  1.0000
  O   O4        1.0  0.04648319786589751  0.4064922829155321  0.19958936090276558  1.0000
  O   O5        1.0  0.4188656284299981  0.8813986201342252  0.9298504507199148  1.0000
  O   O6        1.0  0.03186976176233475  0.19508808444074216  0.9813462533791092  1.0000
  O   O7        1.0  0.36621945961099195  0.5089387330186866  0.8552369551977064  1.0000
  O   O8        1.0  0.1853171907390502  0.7633499529863467  0.3186436988324574  1.0000
  O   O9        1.0  0.3487371584672607  0.33695559368755645  0.5806233515334495  1.0000
  O   O10       1.0  0.8716646674827633  0.7155216946275984  0.7099840983723068  1.0000
  O   O11       1.0  0.6991311956998848  0.5788698453736227  0.42999254981263907  1.0000
  O   O12       1.0  0.3940240808720158  0.962672479840392  0.49366238761252074  1.0000
  O   O13       1.0  0.6040265053287012  0.12576354880870738  0.06738344866306557  1.0000
  O   O14       1.0  0.5574372791786252  0.4624159964552492  0.13391131925822972  1.0000
data_image31
_chemical_formula_structural       V8O14
_chemical_formula_sum              "V8 O14"
_cell_length_a       5.550582121701734
_cell_length_b       6.786413640792483
_cell_length_c       6.98693040473207
_cell_angle_alpha    64.37373990390658
_cell_angle_beta     70.29505848782973
_cell_angle_gamma    75.17998095895898

_space_group_name_H-M_alt    "P 1"
_space_group_IT_number       1

loop_
  _space_group_symop_operation_xyz
  'x, y, z'

loop_
  _atom_site_type_symbol
  _atom_site_label
  _atom_site_symmetry_multiplicity
  _atom_site_fract_x
  _atom_site_fract_y
  _atom_site_fract_z
  _atom_site_occupancy
  V   V1        1.0  0.1523100193482665  0.07738313051830922  0.25175450047624687  1.0000
  V   V2        1.0  0.7820692120727271  0.3646098399629944  0.44066235816091476  1.0000
  V   V3        1.0  0.28664827063946097  0.6486183509398308  0.5696933290173217  1.0000
  V   V4        1.0  0.26999217349364957  0.6309435151945663  0.09516076631694131  1.0000
  V   V5        1.0  0.701292061705899  0.3516847389615451  0.903626210455976  1.0000
  V   V6        1.0  0.22441043862027069  0.08674973818063196  0.7387116259220385  1.0000
  V   V7        1.0  0.7064841653945838  0.9500634880548934  0.2588600458558694  1.0000
  V   V8        1.0  0.8067761865700982  0.885182082062969  0.8010390973909386  1.0000
  O   O1        1.0  0.784214240376334  0.08324050746095524  0.41993923092067204  1.0000
  O   O2        1.0  0.8696225513920879  0.1874417610680255  0.6717645638373733  1.0000
  O   O3        1.0  0.9753834889530136  0.8271935379549032  0.00686923703378417  1.0000
  O   O4        1.0  0.12265637416627274  0.36827049022104635  0.28372514779545477  1.0000
  O   O5        1.0  0.4708466199419494  0.8567364663248658  0.8310276590992  1.0000
  O   O6        1.0  0.045940900332856374  0.18009087237975496  0.010808398884045296  1.0000
  O   O7        1.0  0.3848798536260208  0.5438574032512499  0.8306423806204382  1.0000
  O   O8        1.0  0.23204080444303118  0.7860644403061958  0.29729901680117027  1.0000
  O   O9        1.0  0.2945925733643143  0.3593154794357163  0.5159066129496758  1.0000
  O   O10       1.0  0.9115038663469068  0.6500002792535398  0.7345986693817602  1.0000
  O   O11       1.0  0.682806332134399  0.6521626762819722  0.44717123867046393  1.0000
  O   O12       1.0  0.3500893582289413  0.9539696166508403  0.48352410136274304  1.0000
  O   O13       1.0  0.5092064208993202  0.10687402342410945  0.05037599898785875  1.0000
  O   O14       1.0  0.5985417341334859  0.4857439419756127  0.17420766019439543  1.0000
data_image32
_chemical_formula_structural       V8O14
_chemical_formula_sum              "V8 O14"
_cell_length_a       5.550582121701734
_cell_length_b       6.786413640792483
_cell_length_c       6.98693040473207
_cell_angle_alpha    64.37373990390658
_cell_angle_beta     70.29505848782973
_cell_angle_gamma    75.17998095895898

_space_group_name_H-M_alt    "P 1"
_space_group_IT_number       1

loop_
  _space_group_symop_operation_xyz
  'x, y, z'

loop_
  _atom_site_type_symbol
  _atom_site_label
  _atom_site_symmetry_multiplicity
  _atom_site_fract_x
  _atom_site_fract_y
  _atom_site_fract_z
  _atom_site_occupancy
  V   V1        1.0  0.17770480095566668  0.06612621919959372  0.2290056549867701  1.0000
  V   V2        1.0  0.7999500323276784  0.367859555416143  0.3438482572259786  1.0000
  V   V3        1.0  0.25298502355332686  0.5830055897662814  0.6387464739704725  1.0000
  V   V4        1.0  0.24252450146686147  0.6606752516311065  0.07514699691866941  1.0000
  V   V5        1.0  0.7412093789631996  0.3613459646221308  0.8933734255376894  1.0000
  V   V6        1.0  0.21164248385215476  0.1409778545227163  0.7187673035691684  1.0000
  V   V7        1.0  0.70345310643179  0.9041092291100261  0.2959690800936578  1.0000
  V   V8        1.0  0.8012065316637854  0.9446506939586329  0.7500358390403999  1.0000
  O   O1        1.0  0.8196983547394795  0.04028318019677468  0.45569137552403594  1.0000
  O   O2        1.0  0.8503799626847824  0.22794092047584832  0.693614291718341  1.0000
  O   O3        1.0  0.9817353030163054  0.7881767463528875  0.010001195410132002  1.0000
  O   O4        1.0  0.1495211686859835  0.394864454409267  0.24640452015903022  1.0000
  O   O5        1.0  0.4451466232345727  0.9159411714367237  0.864775535090116  1.0000
  O   O6        1.0  0.016961595001381193  0.13745666667385703  0.03381978020378306  1.0000
  O   O7        1.0  0.3488254259701339  0.5510068274384352  0.8790624698300922  1.0000
  O   O8        1.0  0.21924400021709808  0.7496306186313787  0.3189759212883057  1.0000
  O   O9        1.0  0.42278108511505164  0.34004867222025253  0.5476941056566478  1.0000
  O   O10       1.0  0.9102586614291869  0.5909369245993361  0.7759454888934072  1.0000
  O   O11       1.0  0.7112488821715858  0.6113655652115466  0.45467208277176435  1.0000
  O   O12       1.0  0.22664927637881394  0.9344111961593378  0.5934771143829344  1.0000
  O   O13       1.0  0.5257601573547641  0.16183357111324612  0.09390251251668695  1.0000
  O   O14       1.0  0.6003453957000666  0.4919016573664491  0.16026617323277753  1.0000
data_image33
_chemical_formula_structural       V8O14
_chemical_formula_sum              "V8 O14"
_cell_length_a       5.550582121701734
_cell_length_b       6.786413640792483
_cell_length_c       6.98693040473207
_cell_angle_alpha    64.37373990390658
_cell_angle_beta     70.29505848782973
_cell_angle_gamma    75.17998095895898

_space_group_name_H-M_alt    "P 1"
_space_group_IT_number       1

loop_
  _space_group_symop_operation_xyz
  'x, y, z'

loop_
  _atom_site_type_symbol
  _atom_site_label
  _atom_site_symmetry_multiplicity
  _atom_site_fract_x
  _atom_site_fract_y
  _atom_site_fract_z
  _atom_site_occupancy
  V   V1        1.0  0.24270942287401417  0.1036434849607566  0.23349260726833376  1.0000
  V   V2        1.0  0.7120631038085544  0.36972190470440064  0.41977297887535736  1.0000
  V   V3        1.0  0.24274922546167724  0.6516920907880264  0.6105452690482848  1.0000
  V   V4        1.0  0.3252910639352418  0.6541160637681033  0.06406475534635397  1.0000
  V   V5        1.0  0.7845752693379487  0.34324902135833835  0.8939327394229561  1.0000
  V   V6        1.0  0.17474722204074694  0.08376644665055233  0.7628147208074331  1.0000
  V   V7        1.0  0.818905085341362  0.9149172178287943  0.2729633109806042  1.0000
  V   V8        1.0  0.7939741176478413  0.8898602527460374  0.7320916244241875  1.0000
  O   O1        1.0  0.735407754789491  0.07534053404332862  0.44085356605209475  1.0000
  O   O2        1.0  0.7663694062619524  0.19113558912456166  0.6692836834512343  1.0000
  O   O3        1.0  0.9263166411861784  0.8488585443691467  0.9870269816814438  1.0000
  O   O4        1.0  0.06988823158879133  0.3750410482717944  0.2593332162448629  1.0000
  O   O5        1.0  0.46195443755063403  0.9234975285940534  0.9160806548642899  1.0000
  O   O6        1.0  0.9959786576490725  0.14064791230846893  0.06870168700708083  1.0000
  O   O7        1.0  0.40499653464862045  0.4924680423699297  0.8721162436353872  1.0000
  O   O8        1.0  0.21128928326795426  0.772285017354905  0.30259647011318613  1.0000
  O   O9        1.0  0.3009731045545523  0.34083494905711886  0.5767487006636092  1.0000
  O   O10       1.0  0.858640379676878  0.6034478754116712  0.6457683581923216  1.0000
  O   O11       1.0  0.6034327185750997  0.6665634555562234  0.449893203910931  1.0000
  O   O12       1.0  0.18222547585902532  0.9415930513729905  0.5663646117823403  1.0000
  O   O13       1.0  0.5831794658949959  0.12522684703690581  0.10892713557350607  1.0000
  O   O14       1.0  0.5940403864658643  0.4990365814357303  0.12557451186327095  1.0000
data_image34
_chemical_formula_structural       V8O14
_chemical_formula_sum              "V8 O14"
_cell_length_a       5.550582121701734
_cell_length_b       6.786413640792483
_cell_length_c       6.98693040473207
_cell_angle_alpha    64.37373990390658
_cell_angle_beta     70.29505848782973
_cell_angle_gamma    75.17998095895898

_space_group_name_H-M_alt    "P 1"
_space_group_IT_number       1

loop_
  _space_group_symop_operation_xyz
  'x, y, z'

loop_
  _atom_site_type_symbol
  _atom_site_label
  _atom_site_symmetry_multiplicity
  _atom_site_fract_x
  _atom_site_fract_y
  _atom_site_fract_z
  _atom_site_occupancy
  V   V1        1.0  0.20065888268693957  0.07087774166571659  0.25315274184075015  1.0000
  V   V2        1.0  0.7558712263374476  0.38232615624112287  0.40466869177087705  1.0000
  V   V3        1.0  0.2722568175898385  0.6317454815206951  0.5788099872732515  1.0000
  V   V4        1.0  0.22579474878100256  0.6278444984034746  0.0961682501520182  1.0000
  V   V5        1.0  0.7519077858760019  0.36094309068818486  0.9229306695151833  1.0000
  V   V6        1.0  0.22485050809655407  0.06183021749671015  0.7543167458313225  1.0000
  V   V7        1.0  0.7737567328585663  0.924928259410227  0.23061286309538614  1.0000
  V   V8        1.0  0.8241577951137224  0.9359533088202  0.7374053189839487  1.0000
  O   O1        1.0  0.7548481618027134  0.07461090979092835  0.4323009729625354  1.0000
  O   O2        1.0  0.8452556895506321  0.21170579073069795  0.7602712946919593  1.0000
  O   O3        1.0  0.960962038293928  0.812678749268846  0.008981095826315233  1.0000
  O   O4        1.0  0.09708234213364828  0.3436684156593691  0.27601630580180725  1.0000
  O   O5        1.0  0.4686437049241207  0.8751069216829912  0.9079854514051116  1.0000
  O   O6        1.0  0.059266990404634186  0.18667506143393128  0.015382847839006413  1.0000
  O   O7        1.0  0.3436882354676146  0.49129423806352984  0.851809608376367  1.0000
  O   O8        1.0  0.15726433780629034  0.8152051906683131  0.2830512001490469  1.0000
  O   O9        1.0  0.37726480245169364  0.3591688275650351  0.5434818793636194  1.0000
  O   O10       1.0  0.9143128611131962  0.6313137225434369  0.6909258008291616  1.0000
  O   O11       1.0  0.6438226960024933  0.7015301976154193  0.4279793461466223  1.0000
  O   O12       1.0  0.18000731616931784  0.9422739914819229  0.5701491013072839  1.0000
  O   O13       1.0  0.5260942392689214  0.12531070089397886  0.09476228139919075  1.0000
  O   O14       1.0  0.5627015411601121  0.46721443979577726  0.16499317302373093  1.0000
data_image35
_chemical_formula_structural       V8O14
_chemical_formula_sum              "V8 O14"
_cell_length_a       5.550582121701734
_cell_length_b       6.786413640792483
_cell_length_c       6.98693040473207
_cell_angle_alpha    64.37373990390658
_cell_angle_beta     70.29505848782973
_cell_angle_gamma    75.17998095895898

_space_group_name_H-M_alt    "P 1"
_space_group_IT_number       1

loop_
  _space_group_symop_operation_xyz
  'x, y, z'

loop_
  _atom_site_type_symbol
  _atom_site_label
  _atom_site_symmetry_multiplicity
  _atom_site_fract_x
  _atom_site_fract_y
  _atom_site_fract_z
  _atom_site_occupancy
  V   V1        1.0  0.1569596805835913  0.07707275290878815  0.26092020687183476  1.0000
  V   V2        1.0  0.7471469911144981  0.36013743336274195  0.4256356201849921  1.0000
  V   V3        1.0  0.27336762803051345  0.6135022713342647  0.5986293128122123  1.0000
  V   V4        1.0  0.3215997396302277  0.6388136502438941  0.08562349266947852  1.0000
  V   V5        1.0  0.7175789980012324  0.3664082946879724  0.9353245043735533  1.0000
  V   V6        1.0  0.1739232485490683  0.09650117121148694  0.7521884527281681  1.0000
  V   V7        1.0  0.7980234905633662  0.8875723048950357  0.22758771816201337  1.0000
  V   V8        1.0  0.8131607372769148  0.92635036324394  0.727757571569376  1.0000
  O   O1        1.0  0.7380123059164407  0.06821494143915276  0.44829522683610173  1.0000
  O   O2        1.0  0.8555851679092568  0.21130808473501045  0.6874672916427398  1.0000
  O   O3        1.0  0.989079993083678  0.8079882583835004  0.011428180388551201  1.0000
  O   O4        1.0  0.10356461977077168  0.4362072784352262  0.22655799318887027  1.0000
  O   O5        1.0  0.4568301659031397  0.924174960236245  0.8896813239424656  1.0000
  O   O6        1.0  0.06787201610642403  0.20463072781942965  0.9596198840017323  1.0000
  O   O7        1.0  0.389182764044933  0.5571159915259309  0.83639325314166  1.0000
  O   O8        1.0  0.14627571570329043  0.8006905632906892  0.329646849186442  1.0000
  O   O9        1.0  0.3367559400368983  0.3553283243953237  0.5623263320860096  1.0000
  O   O10       1.0  0.8881813272175282  0.6043141285898426  0.7207686208758146  1.0000
  O   O11       1.0  0.6088530379622619  0.6626269871333607  0.37984572446576753  1.0000
  O   O12       1.0  0.17173555697125642  0.9312407015836367  0.6008488214268565  1.0000
  O   O13       1.0  0.541932978642887  0.10538889918479308  0.11739400892995085  1.0000
  O   O14       1.0  0.6860138610565053  0.46354501636029327  0.14406282572534812  1.0000
data_image36
_chemical_formula_structural       V8O14
_chemical_formula_sum              "V8 O14"
_cell_length_a       5.550582121701734
_cell_length_b       6.786413640792483
_cell_length_c       6.98693040473207
_cell_angle_alpha    64.37373990390658
_cell_angle_beta     70.29505848782973
_cell_angle_gamma    75.17998095895898

_space_group_name_H-M_alt    "P 1"
_space_group_IT_number       1

loop_
  _space_group_symop_operation_xyz
  'x, y, z'

loop_
  _atom_site_type_symbol
  _atom_site_label
  _atom_site_symmetry_multiplicity
  _atom_site_fract_x
  _atom_site_fract_y
  _atom_site_fract_z
  _atom_site_occupancy
  V   V1        1.0  0.22871213684048952  0.08432148575829959  0.21404889284303008  1.0000
  V   V2        1.0  0.7570475353684386  0.3997257117074621  0.3978767485015478  1.0000
  V   V3        1.0  0.2626920797990041  0.6459219557383371  0.5833140623986629  1.0000
  V   V4        1.0  0.237371540351488  0.6019152680373145  0.11017712251576398  1.0000
  V   V5        1.0  0.7134581814311628  0.38152152624541513  0.8913435422954292  1.0000
  V   V6        1.0  0.17033894674616437  0.06648729629664737  0.7600462302754927  1.0000
  V   V7        1.0  0.8328498404500352  0.9293932730106887  0.2384691470672231  1.0000
  V   V8        1.0  0.7488041850234628  0.8938018418792777  0.7618369791549253  1.0000
  O   O1        1.0  0.8267917362155853  0.048951814127026816  0.43889603333255606  1.0000
  O   O2        1.0  0.7759950692176028  0.21165101886322682  0.7145974366933252  1.0000
  O   O3        1.0  0.967688622283338  0.7646803138202432  0.9780463765108839  1.0000
  O   O4        1.0  0.14767001666702234  0.35044129863122175  0.27869256236318035  1.0000
  O   O5        1.0  0.4530976373004529  0.8868664191643489  0.9171788272109969  1.0000
  O   O6        1.0  0.04399548869756083  0.17312142228573218  0.002861023744019127  1.0000
  O   O7        1.0  0.38611683792784157  0.5367451165734265  0.8440196987927574  1.0000
  O   O8        1.0  0.1999679199904444  0.7717354774112116  0.29191245063077864  1.0000
  O   O9        1.0  0.3080206868717077  0.36290163370798706  0.5655837902955364  1.0000
  O   O10       1.0  0.9288408648732828  0.6249790696181715  0.7611608293339525  1.0000
  O   O11       1.0  0.6603703670120027  0.7021005341820585  0.43045904883193625  1.0000
  O   O12       1.0  0.25494234347720524  0.947032081977083  0.5653127232366518  1.0000
  O   O13       1.0  0.5566333030902075  0.14831872899109177  0.14173628141819428  1.0000
  O   O14       1.0  0.6300263774783443  0.47957769473059736  0.16444180661269334  1.0000
data_image37
_chemical_formula_structural       V8O14
_chemical_formula_sum              "V8 O14"
_cell_length_a       5.550582121701734
_cell_length_b       6.786413640792483
_cell_length_c       6.98693040473207
_cell_angle_alpha    64.37373990390658
_cell_angle_beta     70.29505848782973
_cell_angle_gamma    75.17998095895898

_space_group_name_H-M_alt    "P 1"
_space_group_IT_number       1

loop_
  _space_group_symop_operation_xyz
  'x, y, z'

loop_
  _atom_site_type_symbol
  _atom_site_label
  _atom_site_symmetry_multiplicity
  _atom_site_fract_x
  _atom_site_fract_y
  _atom_site_fract_z
  _atom_site_occupancy
  V   V1        1.0  0.19356443794268172  0.10828671974416651  0.24733929780706893  1.0000
  V   V2        1.0  0.7553176315596222  0.3535163821722479  0.4128140776850441  1.0000
  V   V3        1.0  0.23810502037234027  0.6625921248097331  0.6096173362936279  1.0000
  V   V4        1.0  0.28253708337519423  0.61476590432111  0.09624471424999592  1.0000
  V   V5        1.0  0.7314701300349556  0.37141061886258625  0.8962087257351041  1.0000
  V   V6        1.0  0.16901924115286296  0.11127531945152327  0.7701847023277874  1.0000
  V   V7        1.0  0.8392270309094275  0.9031316209526853  0.19584859038560673  1.0000
  V   V8        1.0  0.7729244095680312  0.9173809617144538  0.7174323656354837  1.0000
  O   O1        1.0  0.7331272272064494  0.060070964214346316  0.4234923265933605  1.0000
  O   O2        1.0  0.816514002235431  0.25276902230529813  0.7006132560501215  1.0000
  O   O3        1.0  0.9882065186462292  0.7875141764872556  0.9975278099536706  1.0000
  O   O4        1.0  0.14815558541528026  0.3585924760287322  0.30447464304104943  1.0000
  O   O5        1.0  0.4384412734356141  0.8441658100642959  0.8672013006736271  1.0000
  O   O6        1.0  0.009903820808092883  0.17529653727361905  0.01772839313371597  1.0000
  O   O7        1.0  0.4004172781105419  0.48785199153966297  0.8837914652389489  1.0000
  O   O8        1.0  0.20142453594537987  0.795129919269467  0.30578623435310764  1.0000
  O   O9        1.0  0.3687401447251432  0.33451476218958087  0.6100490610193733  1.0000
  O   O10       1.0  0.9230139619028457  0.5921250516304346  0.7795993312182357  1.0000
  O   O11       1.0  0.6221823317443702  0.6700677838734284  0.4610469393751221  1.0000
  O   O12       1.0  0.15053456823113023  0.9515596642926107  0.5599668377420985  1.0000
  O   O13       1.0  0.5766877152610058  0.11440665914920899  0.09912015468895169  1.0000
  O   O14       1.0  0.663773391148446  0.4494567081002123  0.12775699751039998  1.0000
data_image38
_chemical_formula_structural       V8O14
_chemical_formula_sum              "V8 O14"
_cell_length_a       5.550582121701734
_cell_length_b       6.786413640792483
_cell_length_c       6.98693040473207
_cell_angle_alpha    64.37373990390658
_cell_angle_beta     70.29505848782973
_cell_angle_gamma    75.17998095895898

_space_group_name_H-M_alt    "P 1"
_space_group_IT_number       1

loop_
  _space_group_symop_operation_xyz
  'x, y, z'

loop_
  _atom_site_type_symbol
  _atom_site_label
  _atom_site_symmetry_multiplicity
  _atom_site_fract_x
  _atom_site_fract_y
  _atom_site_fract_z
  _atom_site_occupancy
  V   V1        1.0  0.18741414658445232  0.1203950435215724  0.24348561117377263  1.0000
  V   V2        1.0  0.7174096510382767  0.362132830514858  0.3912003930359665  1.0000
  V   V3        1.0  0.23268472308525684  0.6217733936166311  0.6210165336354733  1.0000
  V   V4        1.0  0.28574705136508244  0.653886081402743  0.07324586441808448  1.0000
  V   V5        1.0  0.7285334647555399  0.3398759419418086  0.9317423441468913  1.0000
  V   V6        1.0  0.17246093407519278  0.07142021234842336  0.7447305979227591  1.0000
  V   V7        1.0  0.8502293107067483  0.9115910751615732  0.24476175844759995  1.0000
  V   V8        1.0  0.8118918652501397  0.9016105058121832  0.7508548152422573  1.0000
  O   O1        1.0  0.8140481409688913  0.07554715102072983  0.44823927079016235  1.0000
  O   O2        1.0  0.8628664774931372  0.24465147446096996  0.6781424319622298  1.0000
  O   O3        1.0  0.9902108152160225  0.8346803894559247  0.9776737501179147  1.0000
  O   O4        1.0  0.11587153660409195  0.4081013290244939  0.21720856523843002  1.0000
  O   O5        1.0  0.4291688599165318  0.9640202443149698  0.8402042220133195  1.0000
  O   O6        1.0  0.05806218728446632  0.14690523962647273  0.015353608571753483  1.0000
  O   O7        1.0  0.4314136718866693  0.5165132494647868  0.8195861787986546  1.0000
  O   O8        1.0  0.2177720144502875  0.778841551126352  0.2812885689236674  1.0000
  O   O9        1.0  0.3127623815966839  0.3443703326724512  0.5926806438762706  1.0000
  O   O10       1.0  0.9060275364779392  0.6131577047883436  0.7850082645854096  1.0000
  O   O11       1.0  0.6082080780819191  0.6491237203956286  0.42574252387052364  1.0000
  O   O12       1.0  0.20876205778873233  0.9292352768259616  0.555623519738349  1.0000
  O   O13       1.0  0.505805325433876  0.07722526308058858  0.15358686658518592  1.0000
  O   O14       1.0  0.5686919229353253  0.4814471354758424  0.16667783709247985  1.0000
data_image39
_chemical_formula_structural       V8O14
_chemical_formula_sum              "V8 O14"
_cell_length_a       5.550582121701734
_cell_length_b       6.786413640792483
_cell_length_c       6.98693040473207
_cell_angle_alpha    64.37373990390658
_cell_angle_beta     70.29505848782973
_cell_angle_gamma    75.17998095895898

_space_group_name_H-M_alt    "P 1"
_space_group_IT_number       1

loop_
  _space_group_symop_operation_xyz
  'x, y, z'

loop_
  _atom_site_type_symbol
  _atom_site_label
  _atom_site_symmetry_multiplicity
  _atom_site_fract_x
  _atom_site_fract_y
  _atom_site_fract_z
  _atom_site_occupancy
  V   V1        1.0  0.24559596033465067  0.07917900405173402  0.22738080115672119  1.0000
  V   V2        1.0  0.7652109058066352  0.37576007743965945  0.3846788375686737  1.0000
  V   V3        1.0  0.2562998989534308  0.6090071738889933  0.6084246832242454  1.0000
  V   V4        1.0  0.24553384617372292  0.6418933559089585  0.11710064728963458  1.0000
  V   V5        1.0  0.681774801514205  0.40363961665587256  0.8967216458203561  1.0000
  V   V6        1.0  0.17045713935261267  0.10765818022664621  0.7832961461421518  1.0000
  V   V7        1.0  0.766420199674523  0.880224127780892  0.28040142611391483  1.0000
  V   V8        1.0  0.8067905634276398  0.904809987680253  0.7121285042578759  1.0000
  O   O1        1.0  0.7616733511969276  0.0585746058607191  0.40271858389605253  1.0000
  O   O2        1.0  0.8493268237932575  0.20909797800852203  0.6927602528142931  1.0000
  O   O3        1.0  0.9680398760696792  0.8571115738424311  0.9777917756651089  1.0000
  O   O4        1.0  0.10561670283283234  0.3519240506933182  0.27966807961223444  1.0000
  O   O5        1.0  0.4513686723766882  0.9054778655225763  0.896890639947167  1.0000
  O   O6        1.0  0.06345258905091096  0.221515862106823  0.9963667849141932  1.0000
  O   O7        1.0  0.3469096128166286  0.5207939205118116  0.8940083603739185  1.0000
  O   O8        1.0  0.20732696494697236  0.7969653943842919  0.2949178861584219  1.0000
  O   O9        1.0  0.383599046229425  0.3333439928298762  0.5153654096357628  1.0000
  O   O10       1.0  0.9137072265321606  0.6224620786791685  0.6963737850189445  1.0000
  O   O11       1.0  0.696381936958252  0.6271835873679477  0.4650756708394894  1.0000
  O   O12       1.0  0.2763101817848097  0.9143047339240604  0.5526324332797198  1.0000
  O   O13       1.0  0.5877562921121532  0.09611105907687818  0.10237235911354634  1.0000
  O   O14       1.0  0.5867785860313935  0.49250033307170615  0.15714066340229635  1.0000
data_image40
_chemical_formula_structural       V8O14
_chemical_formula_sum              "V8 O14"
_cell_length_a       5.550582121701734
_cell_length_b       6.786413640792483
_cell_length_c       6.98693040473207
_cell_angle_alpha    64.37373990390658
_cell_angle_beta     70.29505848782973
_cell_angle_gamma    75.17998095895898

_space_group_name_H-M_alt    "P 1"
_space_group_IT_number       1

loop_
  _space_group_symop_operation_xyz
  'x, y, z'

loop_
  _atom_site_type_symbol
  _atom_site_label
  _atom_site_symmetry_multiplicity
  _atom_site_fract_x
  _atom_site_fract_y
  _atom_site_fract_z
  _atom_site_occupancy
  V   V1        1.0  0.1664538083252175  0.06168998734185412  0.23491975998684347  1.0000
  V   V2        1.0  0.7047738966093099  0.3389979444632035  0.4285915396717434  1.0000
  V   V3        1.0  0.3228930160083548  0.6325361924132078  0.5755853315739958  1.0000
  V   V4        1.0  0.28850112530671385  0.5988749542146575  0.101035503071829  1.0000
  V   V5        1.0  0.7771886472642952  0.43404862912242526  0.8201090226278365  1.0000
  V   V6        1.0  0.18141214958380503  0.06582586640186178  0.7100682924735204  1.0000
  V   V7        1.0  0.7070831530694187  0.9654001268308712  0.2648473146499927  1.0000
  V   V8        1.0  0.7406731776590888  0.9255873100708019  0.8656457425165498  1.0000
  O   O1        1.0  0.8235561732471363  0.049574288151998235  0.4774238880326051  1.0000
  O   O2        1.0  0.8842272777592907  0.22183044542362873  0.6727202705612063  1.0000
  O   O3        1.0  0.9647333370037996  0.8389064198005837  0.0057253865935902315  1.0000
  O   O4        1.0  0.06509877250733379  0.39659597825155696  0.24241348201080176  1.0000
  O   O5        1.0  0.43159613341722564  0.8570954805304417  0.9371199406732509  1.0000
  O   O6        1.0  0.07017169187263954  0.196859634303181  0.9720855107395597  1.0000
  O   O7        1.0  0.3942956922626916  0.5550465306839258  0.8463357026072532  1.0000
  O   O8        1.0  0.1602708042149329  0.7741043227011337  0.32366125379279953  1.0000
  O   O9        1.0  0.36758766682861493  0.33500667573509696  0.6164845224867802  1.0000
  O   O10       1.0  0.9931532672876826  0.6776919279783237  0.7408556983487743  1.0000
  O   O11       1.0  0.6896073316408386  0.6067632571385054  0.42449824832293015  1.0000
  O   O12       1.0  0.32607937721942154  0.9265230409740124  0.5122721137695256  1.0000
  O   O13       1.0  0.5623163613135314  0.1270466124332516  0.012683162143770176  1.0000
  O   O14       1.0  0.6181438982914077  0.38235258284952167  0.1680040271828512  1.0000
data_image41
_chemical_formula_structural       V8O14
_chemical_formula_sum              "V8 O14"
_cell_length_a       5.550582121701734
_cell_length_b       6.786413640792483
_cell_length_c       6.98693040473207
_cell_angle_alpha    64.37373990390658
_cell_angle_beta     70.29505848782973
_cell_angle_gamma    75.17998095895898

_space_group_name_H-M_alt    "P 1"
_space_group_IT_number       1

loop_
  _space_group_symop_operation_xyz
  'x, y, z'

loop_
  _atom_site_type_symbol
  _atom_site_label
  _atom_site_symmetry_multiplicity
  _atom_site_fract_x
  _atom_site_fract_y
  _atom_site_fract_z
  _atom_site_occupancy
  V   V1        1.0  0.2154579496644402  0.08787349613662494  0.20534552413376722  1.0000
  V   V2        1.0  0.6955578598275539  0.3544102492216003  0.4068268045438064  1.0000
  V   V3        1.0  0.2902224136713475  0.6500676209799799  0.6004680331701656  1.0000
  V   V4        1.0  0.2141909801398344  0.6179927450508251  0.11014669391379095  1.0000
  V   V5        1.0  0.7338221990062018  0.3520518747103134  0.9315214711921078  1.0000
  V   V6        1.0  0.21472470626484333  0.11142633349070424  0.7172739141848645  1.0000
  V   V7        1.0  0.7570831588759096  0.8741128846908528  0.28163486122503145  1.0000
  V   V8        1.0  0.7820619734147867  0.9058745349594469  0.7783946982475846  1.0000
  O   O1        1.0  0.8178147188859599  0.07415955594551177  0.4121847651786368  1.0000
  O   O2        1.0  0.9159317781171565  0.21441899863645075  0.6702226663003228  1.0000
  O   O3        1.0  0.9782235113299254  0.8482760618735149  0.9828447035353114  1.0000
  O   O4        1.0  0.07417301362000799  0.3844034526762032  0.27882578636772976  1.0000
  O   O5        1.0  0.44726710839817335  0.9035025742642663  0.8548668588204424  1.0000
  O   O6        1.0  0.04278105405741135  0.20774877884607676  0.9950731167663752  1.0000
  O   O7        1.0  0.41125047039342744  0.5101410283586267  0.8563741712736341  1.0000
  O   O8        1.0  0.10983109180324988  0.8090839185907174  0.3299660254502673  1.0000
  O   O9        1.0  0.3646995634378343  0.36760720376823125  0.5689060126509394  1.0000
  O   O10       1.0  0.9759574435472409  0.6416182633024017  0.7453118590745741  1.0000
  O   O11       1.0  0.6731016669190121  0.6170613332744757  0.4899174344714986  1.0000
  O   O12       1.0  0.35857920596622594  0.9739457165184402  0.48138313236789565  1.0000
  O   O13       1.0  0.5635054425931505  0.11878062241894372  0.04473652361308321  1.0000
  O   O14       1.0  0.568840668351643  0.4990492321573231  0.14342471280594127  1.0000
data_image42
_chemical_formula_structural       V8O14
_chemical_formula_sum              "V8 O14"
_cell_length_a       5.550582121701734
_cell_length_b       6.786413640792483
_cell_length_c       6.98693040473207
_cell_angle_alpha    64.37373990390658
_cell_angle_beta     70.29505848782973
_cell_angle_gamma    75.17998095895898

_space_group_name_H-M_alt    "P 1"
_space_group_IT_number       1

loop_
  _space_group_symop_operation_xyz
  'x, y, z'

loop_
  _atom_site_type_symbol
  _atom_site_label
  _atom_site_symmetry_multiplicity
  _atom_site_fract_x
  _atom_site_fract_y
  _atom_site_fract_z
  _atom_site_occupancy
  V   V1        1.0  0.167839951755389  0.09853545882083774  0.2596584619053671  1.0000
  V   V2        1.0  0.7527649080344058  0.4044112331410351  0.3837067781254069  1.0000
  V   V3        1.0  0.2776728845634413  0.5834165312287658  0.5985768172144078  1.0000
  V   V4        1.0  0.31514884869732196  0.5936498393676641  0.12241656518900962  1.0000
  V   V5        1.0  0.7167267035534601  0.39116236445916464  0.8900585742818097  1.0000
  V   V6        1.0  0.2000524950805016  0.09044329738292518  0.7427360546828646  1.0000
  V   V7        1.0  0.7762187361786382  0.9318239414067927  0.21087682526592377  1.0000
  V   V8        1.0  0.8142573895801732  0.9208131781280552  0.7715854786912506  1.0000
  O   O1        1.0  0.7741094187865715  0.0923048497448906  0.4233631261730677  1.0000
  O   O2        1.0  0.8863900051409197  0.21887078120286788  0.6998529862196303  1.0000
  O   O3        1.0  0.9966932600346233  0.8267249090180585  0.9630289149297997  1.0000
  O   O4        1.0  0.12781177516180303  0.3681010096505572  0.32734647076357437  1.0000
  O   O5        1.0  0.46490801051440594  0.8742972357117493  0.9068803125697392  1.0000
  O   O6        1.0  0.03911885309064879  0.1880554729887011  0.9941889852896078  1.0000
  O   O7        1.0  0.35635119970913914  0.5141650401635969  0.8864721747085541  1.0000
  O   O8        1.0  0.09396890337164324  0.8154175413763093  0.2858259455651297  1.0000
  O   O9        1.0  0.36288890557155806  0.30817887992402865  0.6062385589383148  1.0000
  O   O10       1.0  0.8842535457238669  0.6112998354932577  0.703793963287784  1.0000
  O   O11       1.0  0.5799728476629349  0.6928932486446766  0.42209004761395963  1.0000
  O   O12       1.0  0.18260385430160062  0.9041129433038457  0.5465466522834467  1.0000
  O   O13       1.0  0.49177355136538325  0.11389767670214511  0.1160665803306746  1.0000
  O   O14       1.0  0.6822291582122417  0.44544437294062683  0.14460061524175885  1.0000
data_image43
_chemical_formula_structural       V8O14
_chemical_formula_sum              "V8 O14"
_cell_length_a       5.550582121701734
_cell_length_b       6.786413640792483
_cell_length_c       6.98693040473207
_cell_angle_alpha    64.37373990390658
_cell_angle_beta     70.29505848782973
_cell_angle_gamma    75.17998095895898

_space_group_name_H-M_alt    "P 1"
_space_group_IT_number       1

loop_
  _space_group_symop_operation_xyz
  'x, y, z'

loop_
  _atom_site_type_symbol
  _atom_site_label
  _atom_site_symmetry_multiplicity
  _atom_site_fract_x
  _atom_site_fract_y
  _atom_site_fract_z
  _atom_site_occupancy
  V   V1        1.0  0.21536763686874846  0.069403872051905  0.2520328003386937  1.0000
  V   V2        1.0  0.7467586632340002  0.38763135920620445  0.4024085607497265  1.0000
  V   V3        1.0  0.25598224604845266  0.6248705660491459  0.6151287871611467  1.0000
  V   V4        1.0  0.25523231333076424  0.6369386781772373  0.0655196158486177  1.0000
  V   V5        1.0  0.7313196596790124  0.35267287594947233  0.9448826556374342  1.0000
  V   V6        1.0  0.1952103987324907  0.07903856845561084  0.7507281513947399  1.0000
  V   V7        1.0  0.8127627535615145  0.9179491960859345  0.25009419935892674  1.0000
  V   V8        1.0  0.8393075189408579  0.9229993728877592  0.6935758986103624  1.0000
  O   O1        1.0  0.7710926051560398  0.11778555621843065  0.41370813786737803  1.0000
  O   O2        1.0  0.8170551275204428  0.23309910842658482  0.6982650623159347  1.0000
  O   O3        1.0  0.9415432094142007  0.8301207973386034  0.9851384424650169  1.0000
  O   O4        1.0  0.10385541582961247  0.3629758916255188  0.26350160483891916  1.0000
  O   O5        1.0  0.46137494950685115  0.9072771350926251  0.8580397563428793  1.0000
  O   O6        1.0  0.01125345299071225  0.18487903086919077  0.012685421612244173  1.0000
  O   O7        1.0  0.4082701960939062  0.5362904009548844  0.8478174298865618  1.0000
  O   O8        1.0  0.12286657974006196  0.7770422588416555  0.3120667475967777  1.0000
  O   O9        1.0  0.35159298063172795  0.3834559040252073  0.5677809796084878  1.0000
  O   O10       1.0  0.8241940059084384  0.5855098319376228  0.7666597813624103  1.0000
  O   O11       1.0  0.619128070450551  0.643663161591547  0.4495924117602677  1.0000
  O   O12       1.0  0.1815674792281711  0.9167663234070632  0.5828941566661394  1.0000
  O   O13       1.0  0.5685987307942042  0.09200821024812328  0.13560928201135286  1.0000
  O   O14       1.0  0.6403513389066458  0.47651172455995405  0.15846993081487407  1.0000
data_image44
_chemical_formula_structural       V8O14
_chemical_formula_sum              "V8 O14"
_cell_length_a       5.550582121701734
_cell_length_b       6.786413640792483
_cell_length_c       6.98693040473207
_cell_angle_alpha    64.37373990390658
_cell_angle_beta     70.29505848782973
_cell_angle_gamma    75.17998095895898

_space_group_name_H-M_alt    "P 1"
_space_group_IT_number       1

loop_
  _space_group_symop_operation_xyz
  'x, y, z'

loop_
  _atom_site_type_symbol
  _atom_site_label
  _atom_site_symmetry_multiplicity
  _atom_site_fract_x
  _atom_site_fract_y
  _atom_site_fract_z
  _atom_site_occupancy
  V   V1        1.0  0.18119473133473876  0.10659634746646322  0.22786092301986072  1.0000
  V   V2        1.0  0.716805555453635  0.3671478219405356  0.38271097787851827  1.0000
  V   V3        1.0  0.31753171883126013  0.6573510775572184  0.6184277621169257  1.0000
  V   V4        1.0  0.26276231363023833  0.6072000982662881  0.11001205560484872  1.0000
  V   V5        1.0  0.6947510854138237  0.38937239646293453  0.863065320144241  1.0000
  V   V6        1.0  0.20476218699869655  0.14561885562472487  0.7123920742531359  1.0000
  V   V7        1.0  0.8327357306306794  0.8982721233877029  0.24613461554085317  1.0000
  V   V8        1.0  0.7641444826083809  0.8712649039077073  0.8407799050580803  1.0000
  O   O1        1.0  0.7715787470435259  0.09535003533554881  0.4127647452172377  1.0000
  O   O2        1.0  0.8325252394278707  0.22285679971559655  0.6981881496019123  1.0000
  O   O3        1.0  0.9799957359057809  0.7612118108377517  0.03333976993464627  1.0000
  O   O4        1.0  0.12132730150515553  0.40071448188360864  0.32432464888366164  1.0000
  O   O5        1.0  0.421252283958383  0.8708257648239167  0.8533271910037257  1.0000
  O   O6        1.0  0.9993498094884095  0.15749757693100985  0.003409758822923872  1.0000
  O   O7        1.0  0.33140775008665724  0.45360873971129356  0.8904053063247197  1.0000
  O   O8        1.0  0.1836082437526267  0.7803776765093632  0.2946147834072229  1.0000
  O   O9        1.0  0.3476429978685479  0.403127752329447  0.5172548171145216  1.0000
  O   O10       1.0  0.9462984179018177  0.6343729133395165  0.6986159408043903  1.0000
  O   O11       1.0  0.6791594750970891  0.6108753597134631  0.4728458692786766  1.0000
  O   O12       1.0  0.2709837692848104  0.9668592299346609  0.5285340746254079  1.0000
  O   O13       1.0  0.5562424973475943  0.08519657011405202  0.10783439835762165  1.0000
  O   O14       1.0  0.6255750814182115  0.44532576374096733  0.12448310692553788  1.0000
data_image45
_chemical_formula_structural       V8O14
_chemical_formula_sum              "V8 O14"
_cell_length_a       5.550582121701734
_cell_length_b       6.786413640792483
_cell_length_c       6.98693040473207
_cell_angle_alpha    64.37373990390658
_cell_angle_beta     70.29505848782973
_cell_angle_gamma    75.17998095895898

_space_group_name_H-M_alt    "P 1"
_space_group_IT_number       1

loop_
  _space_group_symop_operation_xyz
  'x, y, z'

loop_
  _atom_site_type_symbol
  _atom_site_label
  _atom_site_symmetry_multiplicity
  _atom_site_fract_x
  _atom_site_fract_y
  _atom_site_fract_z
  _atom_site_occupancy
  V   V1        1.0  0.2886952497939518  0.24887878843579544  0.07904355439889241  1.0000
  V   V2        1.0  0.6935694780268443  0.36231644420292797  0.4297984991822881  1.0000
  V   V3        1.0  0.24461735793917924  0.653493348642184  0.5837396693858137  1.0000
  V   V4        1.0  0.2563906511781172  0.6077649188439528  0.1484553316811832  1.0000
  V   V5        1.0  0.7367631023868862  0.34253800870383433  0.9174473945068725  1.0000
  V   V6        1.0  0.21221026074457838  0.06283687000858817  0.713861648554815  1.0000
  V   V7        1.0  0.8206486083722925  0.8639104164863913  0.2818087621926226  1.0000
  V   V8        1.0  0.7458731996053345  0.9029604370714565  0.8098726401778461  1.0000
  O   O1        1.0  0.6861559623733673  0.03676003444899621  0.5169889930750783  1.0000
  O   O2        1.0  0.8373004836374213  0.18138054765591086  0.6925899390323291  1.0000
  O   O3        1.0  0.9764766553660639  0.8198717386958542  0.9933220441213563  1.0000
  O   O4        1.0  0.05651939963616446  0.3711464956170732  0.2862618070157362  1.0000
  O   O5        1.0  0.4309421676575876  0.8279573579850874  0.8912184259843318  1.0000
  O   O6        1.0  0.06460894043787932  0.1801763036480556  0.0020510378680972247  1.0000
  O   O7        1.0  0.4173930924255752  0.5187349529994694  0.8322607944689226  1.0000
  O   O8        1.0  0.14297977494564185  0.7727352512694107  0.3253217299369845  1.0000
  O   O9        1.0  0.323743088267651  0.34430828070388325  0.5501477116200818  1.0000
  O   O10       1.0  0.9510100019030352  0.5995446721583738  0.744561667105711  1.0000
  O   O11       1.0  0.6440072205781454  0.6510178629062434  0.45270251244850174  1.0000
  O   O12       1.0  0.233332139179217  0.9536836432900617  0.5318073830104885  1.0000
  O   O13       1.0  0.5956566277954688  0.11946538479098774  0.14434969290611957  1.0000
  O   O14       1.0  0.6357708253144564  0.5107438599439224  0.11632172095900932  1.0000
data_image46
_chemical_formula_structural       V8O14
_chemical_formula_sum              "V8 O14"
_cell_length_a       5.550582121701734
_cell_length_b       6.786413640792483
_cell_length_c       6.98693040473207
_cell_angle_alpha    64.37373990390658
_cell_angle_beta     70.29505848782973
_cell_angle_gamma    75.17998095895898

_space_group_name_H-M_alt    "P 1"
_space_group_IT_number       1

loop_
  _space_group_symop_operation_xyz
  'x, y, z'

loop_
  _atom_site_type_symbol
  _atom_site_label
  _atom_site_symmetry_multiplicity
  _atom_site_fract_x
  _atom_site_fract_y
  _atom_site_fract_z
  _atom_site_occupancy
  V   V1        1.0  0.24361192245540086  0.148242606833429  0.16553984693830529  1.0000
  V   V2        1.0  0.6826512373513677  0.38299694325204464  0.4297383710103915  1.0000
  V   V3        1.0  0.2767160683498508  0.6935224162462919  0.534654065074771  1.0000
  V   V4        1.0  0.2601972142411918  0.5924801987162459  0.11788910089845549  1.0000
  V   V5        1.0  0.7293094552506475  0.37614780617817206  0.9115407588905815  1.0000
  V   V6        1.0  0.21419099396438046  0.09477005331380607  0.7264765700671613  1.0000
  V   V7        1.0  0.7929895919076526  0.8804526165671583  0.30755981344602357  1.0000
  V   V8        1.0  0.8216674623883059  0.9201129467251769  0.7661253254218838  1.0000
  O   O1        1.0  0.6483340707139079  0.06371553997342738  0.46247668888317295  1.0000
  O   O2        1.0  0.8105722406561326  0.2273961497600581  0.7069626971074021  1.0000
  O   O3        1.0  0.008132335282044822  0.7549352408163181  0.978932547931534  1.0000
  O   O4        1.0  0.08038312473179797  0.380903314553598  0.30332180339702425  1.0000
  O   O5        1.0  0.46468988851362847  0.8116915607399261  0.895268786597031  1.0000
  O   O6        1.0  0.05798078367897734  0.17071826754750533  0.9934743276805256  1.0000
  O   O7        1.0  0.3854924991794733  0.4392482205933797  0.9015441057530728  1.0000
  O   O8        1.0  0.1963940781224457  0.8076724957428912  0.2774036195987486  1.0000
  O   O9        1.0  0.3445109179520454  0.3709119957873995  0.6035822751654595  1.0000
  O   O10       1.0  0.9051208333194604  0.6305817884628827  0.7112467506931854  1.0000
  O   O11       1.0  0.6171403153253581  0.6468308341943096  0.5099839192869079  1.0000
  O   O12       1.0  0.18953916659662978  0.9757511761694762  0.5030334847105445  1.0000
  O   O13       1.0  0.5781572309165082  0.03378389730599247  0.09643015152746956  1.0000
  O   O14       1.0  0.630399961007698  0.42976692047287557  0.15500944918458537  1.0000
data_image47
_chemical_formula_structural       V8O14
_chemical_formula_sum              "V8 O14"
_cell_length_a       5.550582121701734
_cell_length_b       6.786413640792483
_cell_length_c       6.98693040473207
_cell_angle_alpha    64.37373990390658
_cell_angle_beta     70.29505848782973
_cell_angle_gamma    75.17998095895898

_space_group_name_H-M_alt    "P 1"
_space_group_IT_number       1

loop_
  _space_group_symop_operation_xyz
  'x, y, z'

loop_
  _atom_site_type_symbol
  _atom_site_label
  _atom_site_symmetry_multiplicity
  _atom_site_fract_x
  _atom_site_fract_y
  _atom_site_fract_z
  _atom_site_occupancy
  V   V1        1.0  0.1408385492043749  0.060872999182195756  0.2919494619696869  1.0000
  V   V2        1.0  0.7439308184622843  0.3535656780627588  0.3796676977067974  1.0000
  V   V3        1.0  0.24517237455344845  0.5951130372747382  0.6362428953734102  1.0000
  V   V4        1.0  0.33705693616182975  0.6617484822915428  0.05843348362530556  1.0000
  V   V5        1.0  0.7402022298492444  0.3380959370287584  0.9109131663446745  1.0000
  V   V6        1.0  0.14286590778348496  0.10174038370205704  0.7806131591665421  1.0000
  V   V7        1.0  0.7937017111380263  0.9091254112470354  0.21955289408558548  1.0000
  V   V8        1.0  0.80374828994064  0.9260889170830747  0.7661368045985838  1.0000
  O   O1        1.0  0.8077526929526635  0.02046520440637031  0.43847782661531287  1.0000
  O   O2        1.0  0.83960308253395  0.3207607635538276  0.6248066050363617  1.0000
  O   O3        1.0  0.9953907003456326  0.815581114097419  0.9631332758581984  1.0000
  O   O4        1.0  0.1189617474087605  0.39675557552421276  0.208450446359997  1.0000
  O   O5        1.0  0.4668377304408547  0.9227192772717897  0.8915777123134005  1.0000
  O   O6        1.0  0.05959894171331987  0.22237502194391706  0.9974196342763162  1.0000
  O   O7        1.0  0.4555200382257544  0.564246752200046  0.8444352122493007  1.0000
  O   O8        1.0  0.15439378014956634  0.7390750058549334  0.32727943353828953  1.0000
  O   O9        1.0  0.3722299124281834  0.3138240753326355  0.5600959906663938  1.0000
  O   O10       1.0  0.9038568952453286  0.6659715852178486  0.717722366417374  1.0000
  O   O11       1.0  0.6232598399805411  0.69205976694486  0.39388946561531674  1.0000
  O   O12       1.0  0.21739213238280378  0.9327145365072927  0.5795526575560059  1.0000
  O   O13       1.0  0.5068738587472836  0.11409109271255082  0.1494449234929837  1.0000
  O   O14       1.0  0.6236003446272698  0.4698752242166101  0.1321965461890531  1.0000
data_image48
_chemical_formula_structural       V8O14
_chemical_formula_sum              "V8 O14"
_cell_length_a       5.550582121701734
_cell_length_b       6.786413640792483
_cell_length_c       6.98693040473207
_cell_angle_alpha    64.37373990390658
_cell_angle_beta     70.29505848782973
_cell_angle_gamma    75.17998095895898

_space_group_name_H-M_alt    "P 1"
_space_group_IT_number       1

loop_
  _space_group_symop_operation_xyz
  'x, y, z'

loop_
  _atom_site_type_symbol
  _atom_site_label
  _atom_site_symmetry_multiplicity
  _atom_site_fract_x
  _atom_site_fract_y
  _atom_site_fract_z
  _atom_site_occupancy
  V   V1        1.0  0.20006333079176367  0.1101148743912641  0.25919818732989486  1.0000
  V   V2        1.0  0.6843348788229523  0.368215599870266  0.388381494293512  1.0000
  V   V3        1.0  0.3376940249688252  0.6339327396493185  0.569958335533123  1.0000
  V   V4        1.0  0.238304466411155  0.6420251602048646  0.06313964758794376  1.0000
  V   V5        1.0  0.7271576872507983  0.3676733299961679  0.9189015784524014  1.0000
  V   V6        1.0  0.14255800874031768  0.1205102317125421  0.7767370107628393  1.0000
  V   V7        1.0  0.8433663857242473  0.9127533605070126  0.2764979977896752  1.0000
  V   V8        1.0  0.8003156437533974  0.8212222070635614  0.7889653475712698  1.0000
  O   O1        1.0  0.7954854129924107  0.06305240298037593  0.4638678293537771  1.0000
  O   O2        1.0  0.840412605290547  0.25943283312449766  0.7048973210937078  1.0000
  O   O3        1.0  0.9394363475424253  0.8534621226979642  0.9820006259471558  1.0000
  O   O4        1.0  0.04745698554613317  0.38496128757672754  0.24186625479642032  1.0000
  O   O5        1.0  0.4271939833871612  0.9083709569379169  0.857310207371268  1.0000
  O   O6        1.0  0.07193334377447298  0.2192479319196361  0.9765784200575252  1.0000
  O   O7        1.0  0.40979110522622875  0.514888686735483  0.8363281046622367  1.0000
  O   O8        1.0  0.20393560553614443  0.7699961981906775  0.2665613055686427  1.0000
  O   O9        1.0  0.34338703506038937  0.3201932701352669  0.5498229176183255  1.0000
  O   O10       1.0  0.9182627227030883  0.6033341070043855  0.6986813992918931  1.0000
  O   O11       1.0  0.6526567244398358  0.6350842022052798  0.4058322328925594  1.0000
  O   O12       1.0  0.25426278302562816  0.9636371311096901  0.5733803290886548  1.0000
  O   O13       1.0  0.5821017410295174  0.10609707005708133  0.1391415682976168  1.0000
  O   O14       1.0  0.5763728917636687  0.48524432941748213  0.14026650037929994  1.0000
data_image49
_chemical_formula_structural       V8O14
_chemical_formula_sum              "V8 O14"
_cell_length_a       5.550582121701734
_cell_length_b       6.786413640792483
_cell_length_c       6.98693040473207
_cell_angle_alpha    64.37373990390658
_cell_angle_beta     70.29505848782973
_cell_angle_gamma    75.17998095895898

_space_group_name_H-M_alt    "P 1"
_space_group_IT_number       1

loop_
  _space_group_symop_operation_xyz
  'x, y, z'

loop_
  _atom_site_type_symbol
  _atom_site_label
  _atom_site_symmetry_multiplicity
  _atom_site_fract_x
  _atom_site_fract_y
  _atom_site_fract_z
  _atom_site_occupancy
  V   V1        1.0  0.16952465944389575  0.11939607017729892  0.23615750136819708  1.0000
  V   V2        1.0  0.7439717954257866  0.37286556061371817  0.36697090586050185  1.0000
  V   V3        1.0  0.2886391634208711  0.6048024685177442  0.602370601429722  1.0000
  V   V4        1.0  0.3376536446725207  0.661843680455644  0.09520754707215275  1.0000
  V   V5        1.0  0.7497952321398084  0.3675748592384462  0.8928000567348957  1.0000
  V   V6        1.0  0.1815658734843984  0.09894268251462898  0.7436474912477585  1.0000
  V   V7        1.0  0.7719931152136662  0.8803512880575801  0.24961344262374585  1.0000
  V   V8        1.0  0.7697788076429003  0.9269611207722532  0.7356695873362411  1.0000
  O   O1        1.0  0.7343506280079508  0.01901174100156961  0.4628652384149521  1.0000
  O   O2        1.0  0.8172288366973136  0.22474757030900827  0.7064995172573174  1.0000
  O   O3        1.0  0.9819064707514351  0.8024407384405821  0.033730057338495545  1.0000
  O   O4        1.0  0.10797547205183326  0.4200377136723001  0.29483085875014453  1.0000
  O   O5        1.0  0.4363953913583504  0.9348759181005777  0.8797939344443092  1.0000
  O   O6        1.0  0.029151133119090726  0.15224558409110803  0.024292621649721183  1.0000
  O   O7        1.0  0.412634533357119  0.5257482966470721  0.8609071968569829  1.0000
  O   O8        1.0  0.1159156296555901  0.763108919364603  0.36117638077744185  1.0000
  O   O9        1.0  0.33017011839041605  0.33812462595266163  0.5925640306813499  1.0000
  O   O10       1.0  0.9605638156427693  0.6104169072429768  0.7757425773510526  1.0000
  O   O11       1.0  0.6539066821194711  0.6362046826139953  0.4400466055360691  1.0000
  O   O12       1.0  0.2001300019285653  0.9537043970371528  0.5476792727275107  1.0000
  O   O13       1.0  0.5350577716547585  0.05858726220740015  0.11744563739624049  1.0000
  O   O14       1.0  0.6273772911395976  0.46549538087424536  0.11835528227251543  1.0000
data_image50
_chemical_formula_structural       V8O14
_chemical_formula_sum              "V8 O14"
_cell_length_a       5.550582121701734
_cell_length_b       6.786413640792483
_cell_length_c       6.98693040473207
_cell_angle_alpha    64.37373990390658
_cell_angle_beta     70.29505848782973
_cell_angle_gamma    75.17998095895898

_space_group_name_H-M_alt    "P 1"
_space_group_IT_number       1

loop_
  _space_group_symop_operation_xyz
  'x, y, z'

loop_
  _atom_site_type_symbol
  _atom_site_label
  _atom_site_symmetry_multiplicity
  _atom_site_fract_x
  _atom_site_fract_y
  _atom_site_fract_z
  _atom_site_occupancy
  V   V1        1.0  0.19773366439625067  0.03664591596155697  0.2678589919452541  1.0000
  V   V2        1.0  0.7076732250356603  0.3848571673042922  0.4113352130023863  1.0000
  V   V3        1.0  0.2540105072331756  0.6278814936028754  0.5717401735033973  1.0000
  V   V4        1.0  0.26156625906137215  0.6117306441958134  0.0924066736903  1.0000
  V   V5        1.0  0.6874202618041994  0.3720770080808827  0.8933141556174132  1.0000
  V   V6        1.0  0.20951214223809103  0.09230475800090789  0.7778191554808735  1.0000
  V   V7        1.0  0.8230737070803257  0.9568325729372131  0.23107286306681535  1.0000
  V   V8        1.0  0.8011458383606227  0.8849980394262648  0.7595122160568724  1.0000
  O   O1        1.0  0.8267474052612716  0.056420644018617766  0.44533029920437567  1.0000
  O   O2        1.0  0.8378054834749918  0.21658611490540808  0.7040191571084725  1.0000
  O   O3        1.0  0.9780335547967126  0.8644655623024314  0.9783304038127996  1.0000
  O   O4        1.0  0.10157765183237326  0.39232629615077336  0.28961484646412294  1.0000
  O   O5        1.0  0.47351603316826385  0.8902702077044479  0.956280315093238  1.0000
  O   O6        1.0  0.026078202238879793  0.22571448013638265  0.0027416996005321295  1.0000
  O   O7        1.0  0.37016759013566547  0.555883372261988  0.8255962810414741  1.0000
  O   O8        1.0  0.14782446892520984  0.7481732252095542  0.2994864847584031  1.0000
  O   O9        1.0  0.3966128581880686  0.3214834400899443  0.5684991697490841  1.0000
  O   O10       1.0  0.935600961333312  0.5645625064586829  0.7363758493330188  1.0000
  O   O11       1.0  0.6392625126438692  0.7044221876480476  0.3733072410121482  1.0000
  O   O12       1.0  0.2485346836749274  0.9655720673425868  0.5615603806048991  1.0000
  O   O13       1.0  0.5405116737605704  0.12808333012645307  0.08578771278679474  1.0000
  O   O14       1.0  0.6376258212654238  0.4752453451042958  0.13281100052231495  1.0000
data_image51
_chemical_formula_structural       V8O14
_chemical_formula_sum              "V8 O14"
_cell_length_a       5.550582121701734
_cell_length_b       6.786413640792483
_cell_length_c       6.98693040473207
_cell_angle_alpha    64.37373990390658
_cell_angle_beta     70.29505848782973
_cell_angle_gamma    75.17998095895898

_space_group_name_H-M_alt    "P 1"
_space_group_IT_number       1

loop_
  _space_group_symop_operation_xyz
  'x, y, z'

loop_
  _atom_site_type_symbol
  _atom_site_label
  _atom_site_symmetry_multiplicity
  _atom_site_fract_x
  _atom_site_fract_y
  _atom_site_fract_z
  _atom_site_occupancy
  V   V1        1.0  0.1471548977502595  0.13515567598325398  0.257562642597722  1.0000
  V   V2        1.0  0.7296222548013628  0.34118405128126916  0.4002979118522918  1.0000
  V   V3        1.0  0.27183699946281425  0.6270482511961762  0.6063904218768642  1.0000
  V   V4        1.0  0.27305983693871066  0.6732993129563917  0.08534129087212995  1.0000
  V   V5        1.0  0.783620229312131  0.35050048349979607  0.9214737670676623  1.0000
  V   V6        1.0  0.18715001908257645  0.09584477740965423  0.7259098647519621  1.0000
  V   V7        1.0  0.7961034682386153  0.8871618733477392  0.2650778935805321  1.0000
  V   V8        1.0  0.835487513727916  0.9105493325753848  0.7480710609347418  1.0000
  O   O1        1.0  0.7541283931846859  0.05342933604654418  0.43952764468037125  1.0000
  O   O2        1.0  0.7951562236332437  0.24476951541914957  0.7041191047724014  1.0000
  O   O3        1.0  0.9716453729803195  0.8626047052558833  0.9485241359548376  1.0000
  O   O4        1.0  0.03428993382708405  0.4146937224859549  0.2700895278643414  1.0000
  O   O5        1.0  0.5018126274416335  0.8865540637206296  0.87296019251885  1.0000
  O   O6        1.0  0.09400675502693297  0.13817600498267013  0.003350599076228265  1.0000
  O   O7        1.0  0.32071070173765204  0.5212942081237284  0.8787285986763111  1.0000
  O   O8        1.0  0.19762695679741185  0.7708512145024454  0.291757790651809  1.0000
  O   O9        1.0  0.32460048516734386  0.3454949608299147  0.5317159730177794  1.0000
  O   O10       1.0  0.9235393306870403  0.6564527302456288  0.7381053151963795  1.0000
  O   O11       1.0  0.596574050412787  0.6000756549986883  0.450692726888296  1.0000
  O   O12       1.0  0.2084643786861335  0.9293648413394496  0.5346036972920828  1.0000
  O   O13       1.0  0.5483916010144524  0.05661025010323756  0.15697185044592224  1.0000
  O   O14       1.0  0.623372140697782  0.4622055219042524  0.12159396746279003  1.0000
data_image52
_chemical_formula_structural       V8O14
_chemical_formula_sum              "V8 O14"
_cell_length_a       5.550582121701734
_cell_length_b       6.786413640792483
_cell_length_c       6.98693040473207
_cell_angle_alpha    64.37373990390658
_cell_angle_beta     70.29505848782973
_cell_angle_gamma    75.17998095895898

_space_group_name_H-M_alt    "P 1"
_space_group_IT_number       1

loop_
  _space_group_symop_operation_xyz
  'x, y, z'

loop_
  _atom_site_type_symbol
  _atom_site_label
  _atom_site_symmetry_multiplicity
  _atom_site_fract_x
  _atom_site_fract_y
  _atom_site_fract_z
  _atom_site_occupancy
  V   V1        1.0  0.2114881947802525  0.07581394519372937  0.23305270889565396  1.0000
  V   V2        1.0  0.8096989649772414  0.37382615072162545  0.40753359498570724  1.0000
  V   V3        1.0  0.2758010791269232  0.6666759814091614  0.5673462035004954  1.0000
  V   V4        1.0  0.2648929144305325  0.6433347045914461  0.09838748960562896  1.0000
  V   V5        1.0  0.7053071626463046  0.3876659332449996  0.8928763312052553  1.0000
  V   V6        1.0  0.1802576447039901  0.09534247174545411  0.7515749710359831  1.0000
  V   V7        1.0  0.7969747455925652  0.9240257912908506  0.22277081640468985  1.0000
  V   V8        1.0  0.7601173870316567  0.8768586461760047  0.8063103047781313  1.0000
  O   O1        1.0  0.7387955172574835  0.017013036862544826  0.47844084006925325  1.0000
  O   O2        1.0  0.7751246557781568  0.2059705310496532  0.7119957012148044  1.0000
  O   O3        1.0  0.007652590811109139  0.8334049860442495  0.9700849719596286  1.0000
  O   O4        1.0  0.14740524165022278  0.35171801729327584  0.2996158460471882  1.0000
  O   O5        1.0  0.4179415063879927  0.8709955730895547  0.8503499702176667  1.0000
  O   O6        1.0  0.9898292640336185  0.189601864254691  0.029829128217143914  1.0000
  O   O7        1.0  0.3091986503152412  0.49007591723980687  0.9209079014693323  1.0000
  O   O8        1.0  0.19321656674950968  0.7358979482929733  0.34213697648304775  1.0000
  O   O9        1.0  0.36012095682476963  0.31020926074370686  0.5934998585717046  1.0000
  O   O10       1.0  0.9261083809533887  0.5859317925251113  0.7147105143130661  1.0000
  O   O11       1.0  0.6504757220479381  0.6634130440140321  0.46077898275430595  1.0000
  O   O12       1.0  0.2665392144110345  0.9789064935271001  0.5368010609039138  1.0000
  O   O13       1.0  0.5250400664415025  0.11204072547702118  0.06522828011156999  1.0000
  O   O14       1.0  0.6577981577008749  0.5156098364335254  0.07043392286694157  1.0000
data_image53
_chemical_formula_structural       V8O14
_chemical_formula_sum              "V8 O14"
_cell_length_a       5.550582121701734
_cell_length_b       6.786413640792483
_cell_length_c       6.98693040473207
_cell_angle_alpha    64.37373990390658
_cell_angle_beta     70.29505848782973
_cell_angle_gamma    75.17998095895898

_space_group_name_H-M_alt    "P 1"
_space_group_IT_number       1

loop_
  _space_group_symop_operation_xyz
  'x, y, z'

loop_
  _atom_site_type_symbol
  _atom_site_label
  _atom_site_symmetry_multiplicity
  _atom_site_fract_x
  _atom_site_fract_y
  _atom_site_fract_z
  _atom_site_occupancy
  V   V1        1.0  0.23231142520510015  0.09176425088055927  0.22536322815315737  1.0000
  V   V2        1.0  0.7474141265165816  0.4434220646886612  0.325829076035548  1.0000
  V   V3        1.0  0.28655219394988235  0.6123223271894307  0.6122642688858876  1.0000
  V   V4        1.0  0.25298248171088666  0.6197062143830105  0.09306390181766187  1.0000
  V   V5        1.0  0.7568897892906892  0.3561311637973296  0.8804514017860247  1.0000
  V   V6        1.0  0.20924271760952456  0.07268253623788738  0.7559590349921067  1.0000
  V   V7        1.0  0.787522613356924  0.9248864229903319  0.2864763144733187  1.0000
  V   V8        1.0  0.8349771543524419  0.8951152599576708  0.739729953934747  1.0000
  O   O1        1.0  0.644178973316853  0.10380987376218491  0.48298971415333825  1.0000
  O   O2        1.0  0.7878784786677865  0.18373249098161368  0.74598059995279  1.0000
  O   O3        1.0  0.8897501991093585  0.7588209097942316  0.03318115935837618  1.0000
  O   O4        1.0  0.06825325015901924  0.3390572954297891  0.3397649020178293  1.0000
  O   O5        1.0  0.4731841909401344  0.9072857558524577  0.8939445173321658  1.0000
  O   O6        1.0  0.06488978712849854  0.18767967142305217  0.9924214743322206  1.0000
  O   O7        1.0  0.36145111777384215  0.45666493161067956  0.875817465413029  1.0000
  O   O8        1.0  0.1565721989027959  0.7896840409510952  0.29683340287616583  1.0000
  O   O9        1.0  0.2973794029724373  0.40822636058545037  0.5453938244070099  1.0000
  O   O10       1.0  0.8503235812410387  0.6130349150478691  0.7655051477727565  1.0000
  O   O11       1.0  0.6298238359310452  0.6453206009934115  0.47448696883990316  1.0000
  O   O12       1.0  0.18190450694873858  0.9441796675920727  0.551234947684499  1.0000
  O   O13       1.0  0.5840329127119859  0.1123867911881777  0.12003222449859384  1.0000
  O   O14       1.0  0.6458565174791754  0.493957334152207  0.1235171275652893  1.0000
data_image54
_chemical_formula_structural       V8O14
_chemical_formula_sum              "V8 O14"
_cell_length_a       5.550582121701734
_cell_length_b       6.786413640792483
_cell_length_c       6.98693040473207
_cell_angle_alpha    64.37373990390658
_cell_angle_beta     70.29505848782973
_cell_angle_gamma    75.17998095895898

_space_group_name_H-M_alt    "P 1"
_space_group_IT_number       1

loop_
  _space_group_symop_operation_xyz
  'x, y, z'

loop_
  _atom_site_type_symbol
  _atom_site_label
  _atom_site_symmetry_multiplicity
  _atom_site_fract_x
  _atom_site_fract_y
  _atom_site_fract_z
  _atom_site_occupancy
  V   V1        1.0  0.26650409620817606  0.11937262903861219  0.25962345330113357  1.0000
  V   V2        1.0  0.7146826708460173  0.32310776779844125  0.3931309742978134  1.0000
  V   V3        1.0  0.28320978511255296  0.61416313482066  0.6253312422282891  1.0000
  V   V4        1.0  0.28069010584252524  0.6087327620662818  0.1433700634315188  1.0000
  V   V5        1.0  0.6571708963747744  0.41160872774104  0.8465730689779527  1.0000
  V   V6        1.0  0.1339017086322729  0.12538941518778962  0.7626761825162996  1.0000
  V   V7        1.0  0.8293136564800649  0.9186785996872643  0.23619433526778608  1.0000
  V   V8        1.0  0.8301330072945137  0.8926709571774942  0.7737359795945128  1.0000
  O   O1        1.0  0.802486080217875  0.01727394134503037  0.46078936252043107  1.0000
  O   O2        1.0  0.764775775352667  0.2294027841154957  0.7009938334775107  1.0000
  O   O3        1.0  0.008213845042494894  0.827465445655853  0.02105451485454979  1.0000
  O   O4        1.0  0.08342982031434329  0.38579949686543813  0.296975088889751  1.0000
  O   O5        1.0  0.5065056301204601  0.8622145693058125  0.7831159932113488  1.0000
  O   O6        1.0  0.07744433657947451  0.19399959456047805  0.04359039657660291  1.0000
  O   O7        1.0  0.3237659404529402  0.5246866754448561  0.8738188535114894  1.0000
  O   O8        1.0  0.18982886864716692  0.7916008706731241  0.2841446077681575  1.0000
  O   O9        1.0  0.3082162059111372  0.3257167988877472  0.5630432890541879  1.0000
  O   O10       1.0  0.9260002878017755  0.6490579452858679  0.6851569577785377  1.0000
  O   O11       1.0  0.6012692424424476  0.6575849125572162  0.3819954462170324  1.0000
  O   O12       1.0  0.24142219605462062  0.9813591803936467  0.5511455932065643  1.0000
  O   O13       1.0  0.5510270671857864  0.056183730731065536  0.09353800271337377  1.0000
  O   O14       1.0  0.6184272693402633  0.4394075835431619  0.11589376447172778  1.0000
data_image55
_chemical_formula_structural       V8O14
_chemical_formula_sum              "V8 O14"
_cell_length_a       5.550582121701734
_cell_length_b       6.786413640792483
_cell_length_c       6.98693040473207
_cell_angle_alpha    64.37373990390658
_cell_angle_beta     70.29505848782973
_cell_angle_gamma    75.17998095895898

_space_group_name_H-M_alt    "P 1"
_space_group_IT_number       1

loop_
  _space_group_symop_operation_xyz
  'x, y, z'

loop_
  _atom_site_type_symbol
  _atom_site_label
  _atom_site_symmetry_multiplicity
  _atom_site_fract_x
  _atom_site_fract_y
  _atom_site_fract_z
  _atom_site_occupancy
  V   V1        1.0  0.1589162867845964  0.11065304004072052  0.2196534204849828  1.0000
  V   V2        1.0  0.7537474279224926  0.3446041301347148  0.4554283770051877  1.0000
  V   V3        1.0  0.2967010648446532  0.6382799138262449  0.5857686526480982  1.0000
  V   V4        1.0  0.27362415740983315  0.6282811473807461  0.09055930686114125  1.0000
  V   V5        1.0  0.7009781975269953  0.35751815642786333  0.919845087701329  1.0000
  V   V6        1.0  0.21843726784862824  0.08026367897241608  0.7313507012912575  1.0000
  V   V7        1.0  0.7977176002659855  0.8887528696600219  0.26548237068391967  1.0000
  V   V8        1.0  0.8073659508754736  0.9230518508570282  0.6954994054638761  1.0000
  O   O1        1.0  0.7789234097363128  0.08765769777509241  0.3871679886497633  1.0000
  O   O2        1.0  0.7843201438583267  0.17129087793927783  0.775075741186576  1.0000
  O   O3        1.0  0.9866876288352215  0.8125280469210815  0.9512607581151326  1.0000
  O   O4        1.0  0.11764949432878773  0.32559740101310986  0.30343863001046883  1.0000
  O   O5        1.0  0.43493375966471365  0.9223020360674783  0.8947966730874536  1.0000
  O   O6        1.0  0.047209861694784826  0.18918234891969699  0.9634125969593907  1.0000
  O   O7        1.0  0.4100860475978377  0.6033638490010224  0.8452342445010268  1.0000
  O   O8        1.0  0.14668371362072785  0.7923055009588138  0.3202925620931717  1.0000
  O   O9        1.0  0.37646668623988744  0.33476979953901803  0.5839300718091669  1.0000
  O   O10       1.0  0.8861654899650812  0.6292129649488307  0.7910668728040217  1.0000
  O   O11       1.0  0.7082161376413317  0.6569681444038532  0.44035937508199297  1.0000
  O   O12       1.0  0.2014451535760627  0.960575970611732  0.5574373028073468  1.0000
  O   O13       1.0  0.4788261153620917  0.08199890207641179  0.14082405085709082  1.0000
  O   O14       1.0  0.6084601794607065  0.5054815837487443  0.14659318115800118  1.0000
data_image56
_chemical_formula_structural       V8O14
_chemical_formula_sum              "V8 O14"
_cell_length_a       5.550582121701734
_cell_length_b       6.786413640792483
_cell_length_c       6.98693040473207
_cell_angle_alpha    64.37373990390658
_cell_angle_beta     70.29505848782973
_cell_angle_gamma    75.17998095895898

_space_group_name_H-M_alt    "P 1"
_space_group_IT_number       1

loop_
  _space_group_symop_operation_xyz
  'x, y, z'

loop_
  _atom_site_type_symbol
  _atom_site_label
  _atom_site_symmetry_multiplicity
  _atom_site_fract_x
  _atom_site_fract_y
  _atom_site_fract_z
  _atom_site_occupancy
  V   V1        1.0  0.18599827832065877  0.12862187791944465  0.2652777375684861  1.0000
  V   V2        1.0  0.6890125811676633  0.3427269710997584  0.36507704739489893  1.0000
  V   V3        1.0  0.2906631457991509  0.6303350445866424  0.5854946304619857  1.0000
  V   V4        1.0  0.29476443718550344  0.6203658385253803  0.09198463322784457  1.0000
  V   V5        1.0  0.734755309177073  0.35796527433243447  0.845142151082225  1.0000
  V   V6        1.0  0.21261330692048197  0.07068561877299612  0.7742035001123442  1.0000
  V   V7        1.0  0.8136743371019197  0.9156392982045793  0.26902605705695787  1.0000
  V   V8        1.0  0.7971278711035309  0.8580393501266714  0.8129798519166713  1.0000
  O   O1        1.0  0.8315568174958834  0.06534451274732896  0.4401926936352299  1.0000
  O   O2        1.0  0.7240076196202528  0.20312845683388553  0.7033554165214213  1.0000
  O   O3        1.0  0.9295694460717955  0.8190112208523331  0.034321661257440184  1.0000
  O   O4        1.0  0.039571088659471086  0.44759450432888204  0.33256902177334613  1.0000
  O   O5        1.0  0.4624086531500569  0.9195902938951577  0.8455638451649858  1.0000
  O   O6        1.0  0.038498207512732086  0.17646623136167544  0.016440098380329903  1.0000
  O   O7        1.0  0.40463356476722273  0.5480522183363946  0.807009725901099  1.0000
  O   O8        1.0  0.15599278747214582  0.8101907498359079  0.32945754377368197  1.0000
  O   O9        1.0  0.3031172368117404  0.3542485956387983  0.5734432315200204  1.0000
  O   O10       1.0  0.9303267582221758  0.6305343791240795  0.6927255345186617  1.0000
  O   O11       1.0  0.6354665321371123  0.6695274629070311  0.38727690900410333  1.0000
  O   O12       1.0  0.2231850570439112  0.9821756108241028  0.5720786720068411  1.0000
  O   O13       1.0  0.5422284012417401  0.11314920079086725  0.14383881018526118  1.0000
  O   O14       1.0  0.7017948242812476  0.48988659255409994  0.07963995548463304  1.0000
data_image57
_chemical_formula_structural       V8O14
_chemical_formula_sum              "V8 O14"
_cell_length_a       5.550582121701734
_cell_length_b       6.786413640792483
_cell_length_c       6.98693040473207
_cell_angle_alpha    64.37373990390658
_cell_angle_beta     70.29505848782973
_cell_angle_gamma    75.17998095895898

_space_group_name_H-M_alt    "P 1"
_space_group_IT_number       1

loop_
  _space_group_symop_operation_xyz
  'x, y, z'

loop_
  _atom_site_type_symbol
  _atom_site_label
  _atom_site_symmetry_multiplicity
  _atom_site_fract_x
  _atom_site_fract_y
  _atom_site_fract_z
  _atom_site_occupancy
  V   V1        1.0  0.15781729639895983  0.07972214791855241  0.2713449739666248  1.0000
  V   V2        1.0  0.6884829306608151  0.36473507895181445  0.429635273370575  1.0000
  V   V3        1.0  0.33663598272389367  0.6251466145926284  0.5796511727172516  1.0000
  V   V4        1.0  0.23523487407199686  0.6392908729399208  0.0835391646176202  1.0000
  V   V5        1.0  0.6973872078982086  0.3830147398773213  0.9224170824782725  1.0000
  V   V6        1.0  0.23186140659511167  0.11922068744067273  0.7369297684756511  1.0000
  V   V7        1.0  0.8189963607115124  0.923091629609129  0.21114108028845827  1.0000
  V   V8        1.0  0.8442697599273927  0.9189040776960112  0.7261954502037187  1.0000
  O   O1        1.0  0.7806775872580929  0.0473477229269802  0.44261362938491355  1.0000
  O   O2        1.0  0.8678551305287304  0.25416725369155435  0.6978608560322624  1.0000
  O   O3        1.0  0.007488904991473255  0.8126456613508551  0.9680241137655347  1.0000
  O   O4        1.0  0.09226977998472781  0.36435823958689456  0.2357283829639348  1.0000
  O   O5        1.0  0.4190867181104971  0.895465466541541  0.948219606293215  1.0000
  O   O6        1.0  0.012362274260553502  0.18336561879395502  0.03340663038281381  1.0000
  O   O7        1.0  0.366073258818769  0.432455996848126  0.8737915763355424  1.0000
  O   O8        1.0  0.13396186507885474  0.7175998612826257  0.3111263363991392  1.0000
  O   O9        1.0  0.33115524998338447  0.3560025337119252  0.5330579779574932  1.0000
  O   O10       1.0  0.9296515975697173  0.63442162832449  0.7554736409806925  1.0000
  O   O11       1.0  0.6611811900068681  0.655022427805217  0.43729678000214406  1.0000
  O   O12       1.0  0.256295365980042  0.8925078208920622  0.6017982285639443  1.0000
  O   O13       1.0  0.5088972518680949  0.06339192487158872  0.15641700010150608  1.0000
  O   O14       1.0  0.590661326025845  0.5190497633055167  0.108046303079341  1.0000
data_image58
_chemical_formula_structural       V8O14
_chemical_formula_sum              "V8 O14"
_cell_length_a       5.550582121701734
_cell_length_b       6.786413640792483
_cell_length_c       6.98693040473207
_cell_angle_alpha    64.37373990390658
_cell_angle_beta     70.29505848782973
_cell_angle_gamma    75.17998095895898

_space_group_name_H-M_alt    "P 1"
_space_group_IT_number       1

loop_
  _space_group_symop_operation_xyz
  'x, y, z'

loop_
  _atom_site_type_symbol
  _atom_site_label
  _atom_site_symmetry_multiplicity
  _atom_site_fract_x
  _atom_site_fract_y
  _atom_site_fract_z
  _atom_site_occupancy
  V   V1        1.0  0.2593003643566582  0.06653287519826431  0.2560701011124  1.0000
  V   V2        1.0  0.741770197125749  0.3754774343643775  0.42826110639741005  1.0000
  V   V3        1.0  0.22036646341531382  0.6247242590086478  0.5880650221482354  1.0000
  V   V4        1.0  0.29417463380684905  0.5940467523063526  0.12646987401672038  1.0000
  V   V5        1.0  0.7025404326742066  0.36847995167415853  0.8842682221857595  1.0000
  V   V6        1.0  0.19276945956677508  0.047955865623615916  0.7972963805654146  1.0000
  V   V7        1.0  0.7859681371183016  0.931842114730617  0.2559738274666046  1.0000
  V   V8        1.0  0.8297277701408713  0.9378402629547661  0.7438739135218131  1.0000
  O   O1        1.0  0.7197833941092673  0.1034269917229397  0.39806496676005887  1.0000
  O   O2        1.0  0.9089600817243896  0.251188725256273  0.6485853849110491  1.0000
  O   O3        1.0  0.9366976125834225  0.8546380297959382  0.9884323861259886  1.0000
  O   O4        1.0  0.11771244454937833  0.33342474248139353  0.27428623124025614  1.0000
  O   O5        1.0  0.4422755577995419  0.8956636459371062  0.8830010789069033  1.0000
  O   O6        1.0  0.9903516568214682  0.2005498852598696  0.00938384124563401  1.0000
  O   O7        1.0  0.39243498685556005  0.5363731169085455  0.845047846342597  1.0000
  O   O8        1.0  0.12046971800472653  0.788930158805606  0.2940847794141665  1.0000
  O   O9        1.0  0.39279987775850883  0.34387596083182587  0.599065886470641  1.0000
  O   O10       1.0  0.8831400610659534  0.634674320479036  0.7008076730598789  1.0000
  O   O11       1.0  0.615816981746333  0.7231716215309759  0.35090557543504786  1.0000
  O   O12       1.0  0.15756687365073122  0.9351094811997553  0.5662606150131755  1.0000
  O   O13       1.0  0.5756133543928587  0.07214726148870729  0.045938208874925675  1.0000
  O   O14       1.0  0.6619553931200679  0.49677012156892614  0.11352654171401654  1.0000
data_image59
_chemical_formula_structural       V8O14
_chemical_formula_sum              "V8 O14"
_cell_length_a       5.550582121701734
_cell_length_b       6.786413640792483
_cell_length_c       6.98693040473207
_cell_angle_alpha    64.37373990390658
_cell_angle_beta     70.29505848782973
_cell_angle_gamma    75.17998095895898

_space_group_name_H-M_alt    "P 1"
_space_group_IT_number       1

loop_
  _space_group_symop_operation_xyz
  'x, y, z'

loop_
  _atom_site_type_symbol
  _atom_site_label
  _atom_site_symmetry_multiplicity
  _atom_site_fract_x
  _atom_site_fract_y
  _atom_site_fract_z
  _atom_site_occupancy
  V   V1        1.0  0.19080626283915722  0.13487935911653637  0.22508614508091054  1.0000
  V   V2        1.0  0.7444300716079933  0.34527565775963887  0.40264890668154624  1.0000
  V   V3        1.0  0.27075505738211264  0.6156800220364734  0.5954540751233769  1.0000
  V   V4        1.0  0.25764420237763097  0.6575194575872887  0.0503085820938067  1.0000
  V   V5        1.0  0.7295048370584882  0.3681789211008799  0.9565751095822681  1.0000
  V   V6        1.0  0.1340099085041927  0.09358343230394449  0.7553630316205246  1.0000
  V   V7        1.0  0.8571107886227601  0.8559718908553194  0.26156680986685565  1.0000
  V   V8        1.0  0.7645839886226585  0.8931760680646523  0.7524393819326333  1.0000
  O   O1        1.0  0.7866898393673774  0.02905718002138935  0.4739156814780452  1.0000
  O   O2        1.0  0.8500055934908554  0.30513604027978997  0.6804115631013589  1.0000
  O   O3        1.0  0.9532754376429947  0.8491553599955575  0.9801081684288876  1.0000
  O   O4        1.0  0.12451035277505426  0.3950314378662196  0.26998212857689313  1.0000
  O   O5        1.0  0.442117381075522  0.9266870615826629  0.8358299860895766  1.0000
  O   O6        1.0  0.03202161762179633  0.22326737598859167  0.9879916587654347  1.0000
  O   O7        1.0  0.4514406313189368  0.5108396461745836  0.8190344710359835  1.0000
  O   O8        1.0  0.16060793006190344  0.7859555595610794  0.29838903465945665  1.0000
  O   O9        1.0  0.4208414862212619  0.29906033457224296  0.5729838431895898  1.0000
  O   O10       1.0  0.8999832660417969  0.5772991952060819  0.7439281451959319  1.0000
  O   O11       1.0  0.6228582329901508  0.6447883242739729  0.4612489975397503  1.0000
  O   O12       1.0  0.19549776798750637  0.9173249412472444  0.5816662274912999  1.0000
  O   O13       1.0  0.549658851779129  0.09564491290563039  0.1807695465760337  1.0000
  O   O14       1.0  0.6611399445089624  0.5568346222266587  0.08822163668960878  1.0000
data_image60
_chemical_formula_structural       V8O14
_chemical_formula_sum              "V8 O14"
_cell_length_a       5.550582121701734
_cell_length_b       6.786413640792483
_cell_length_c       6.98693040473207
_cell_angle_alpha    64.37373990390658
_cell_angle_beta     70.29505848782973
_cell_angle_gamma    75.17998095895898

_space_group_name_H-M_alt    "P 1"
_space_group_IT_number       1

loop_
  _space_group_symop_operation_xyz
  'x, y, z'

loop_
  _atom_site_type_symbol
  _atom_site_label
  _atom_site_symmetry_multiplicity
  _atom_site_fract_x
  _atom_site_fract_y
  _atom_site_fract_z
  _atom_site_occupancy
  V   V1        1.0  0.13791379335703632  0.11546166091080928  0.24961132494209246  1.0000
  V   V2        1.0  0.7150417226242443  0.35744331277270747  0.4046142850676461  1.0000
  V   V3        1.0  0.3064134246645896  0.6269057753813985  0.6059412323336998  1.0000
  V   V4        1.0  0.26104564002996494  0.6582236434078983  0.11935749037284271  1.0000
  V   V5        1.0  0.7403416611528456  0.3786829942325838  0.8853348654667199  1.0000
  V   V6        1.0  0.19086640525924534  0.08949136449757797  0.7492824228302626  1.0000
  V   V7        1.0  0.7892986160867198  0.9237961788550039  0.24624264391461057  1.0000
  V   V8        1.0  0.8123001962069422  0.8700912551715407  0.7680739705638682  1.0000
  O   O1        1.0  0.8443293787602851  0.02364351918795011  0.45624984049982287  1.0000
  O   O2        1.0  0.858977190447235  0.18681864147932908  0.6965791342422049  1.0000
  O   O3        1.0  0.9930596451223492  0.7845372264038578  0.9820612805590854  1.0000
  O   O4        1.0  0.05149532326605598  0.4408013795221469  0.19536589052638517  1.0000
  O   O5        1.0  0.45687301710885686  0.8952106576917684  0.8780596208807084  1.0000
  O   O6        1.0  0.018834124595417334  0.23162499850625828  0.9963944019523413  1.0000
  O   O7        1.0  0.35761099402063673  0.4929588633408308  0.8535828460971309  1.0000
  O   O8        1.0  0.20876381586718812  0.789725613584081  0.30454812263996417  1.0000
  O   O9        1.0  0.38398318525290126  0.3075003164210092  0.5690136023462138  1.0000
  O   O10       1.0  0.9311083886522991  0.6547390174332468  0.678327037377134  1.0000
  O   O11       1.0  0.6752392832330644  0.6139411957897585  0.4202247644349618  1.0000
  O   O12       1.0  0.22391835889225478  0.9146596480294563  0.596228565732581  1.0000
  O   O13       1.0  0.5238301493446464  0.12365048648170372  0.11453217172711551  1.0000
  O   O14       1.0  0.6078464748131946  0.4729880625350629  0.14466128269661863  1.0000
data_image61
_chemical_formula_structural       V8O14
_chemical_formula_sum              "V8 O14"
_cell_length_a       5.550582121701734
_cell_length_b       6.786413640792483
_cell_length_c       6.98693040473207
_cell_angle_alpha    64.37373990390658
_cell_angle_beta     70.29505848782973
_cell_angle_gamma    75.17998095895898

_space_group_name_H-M_alt    "P 1"
_space_group_IT_number       1

loop_
  _space_group_symop_operation_xyz
  'x, y, z'

loop_
  _atom_site_type_symbol
  _atom_site_label
  _atom_site_symmetry_multiplicity
  _atom_site_fract_x
  _atom_site_fract_y
  _atom_site_fract_z
  _atom_site_occupancy
  V   V1        1.0  0.21160421296716464  0.07710956733433705  0.21658842955888347  1.0000
  V   V2        1.0  0.754715633112381  0.39043135270387513  0.4114324583519491  1.0000
  V   V3        1.0  0.2780835954605839  0.6281584039686328  0.5999874662759137  1.0000
  V   V4        1.0  0.2812687587870932  0.6490623275990218  0.08372019235842174  1.0000
  V   V5        1.0  0.666297185666201  0.4153647232235537  0.9279836230475221  1.0000
  V   V6        1.0  0.14006545287724886  0.08736663229449636  0.7753645027107888  1.0000
  V   V7        1.0  0.8322476865838967  0.921584462448847  0.20551226614468238  1.0000
  V   V8        1.0  0.8040678012018402  0.9123011345464942  0.7033858412809271  1.0000
  O   O1        1.0  0.8258715097703926  0.03394641147555017  0.4285376792990489  1.0000
  O   O2        1.0  0.793517342995728  0.1843190553860392  0.7676874432862074  1.0000
  O   O3        1.0  0.9713658230232035  0.7919007139298608  0.9959804584172117  1.0000
  O   O4        1.0  0.07963466485617568  0.3080719312446793  0.3263596458953676  1.0000
  O   O5        1.0  0.49139431469133  0.9041679332985576  0.8170546180802711  1.0000
  O   O6        1.0  0.027851301555333264  0.19591164179911946  0.9982364417153683  1.0000
  O   O7        1.0  0.33878364450620757  0.48082006581002157  0.8960711620034368  1.0000
  O   O8        1.0  0.1885240895920194  0.725270907101547  0.3294954383135929  1.0000
  O   O9        1.0  0.41716669538697965  0.3239399739340648  0.5741060561990449  1.0000
  O   O10       1.0  0.866102816798802  0.6263202832654672  0.7282635493183204  1.0000
  O   O11       1.0  0.6851454216320005  0.6455533220391768  0.4350893349286133  1.0000
  O   O12       1.0  0.2190831943305806  0.9280884471919022  0.5667552106572582  1.0000
  O   O13       1.0  0.5190650955795897  0.10554157520147256  0.17416621272764282  1.0000
  O   O14       1.0  0.6597359408483514  0.47918929745519295  0.17715804774542704  1.0000
data_image62
_chemical_formula_structural       V8O14
_chemical_formula_sum              "V8 O14"
_cell_length_a       5.550582121701734
_cell_length_b       6.786413640792483
_cell_length_c       6.98693040473207
_cell_angle_alpha    64.37373990390658
_cell_angle_beta     70.29505848782973
_cell_angle_gamma    75.17998095895898

_space_group_name_H-M_alt    "P 1"
_space_group_IT_number       1

loop_
  _space_group_symop_operation_xyz
  'x, y, z'

loop_
  _atom_site_type_symbol
  _atom_site_label
  _atom_site_symmetry_multiplicity
  _atom_site_fract_x
  _atom_site_fract_y
  _atom_site_fract_z
  _atom_site_occupancy
  V   V1        1.0  0.20803337613244066  0.11201096793752181  0.23134358272175318  1.0000
  V   V2        1.0  0.6913547662156948  0.35685725269049773  0.41289802335254555  1.0000
  V   V3        1.0  0.2843878632127992  0.6525734321314292  0.5856750461940995  1.0000
  V   V4        1.0  0.23788396034004033  0.6285815693336841  0.07199503988486368  1.0000
  V   V5        1.0  0.7267592489733603  0.34203274951125656  0.9458035859304754  1.0000
  V   V6        1.0  0.21381923591540966  0.06920189178968049  0.7551155757411376  1.0000
  V   V7        1.0  0.8313863383803357  0.8916964394991885  0.2500276198856132  1.0000
  V   V8        1.0  0.7840970198988415  0.9146922127871386  0.7577231543845102  1.0000
  O   O1        1.0  0.776713199152766  0.05166018320854884  0.4736499744674477  1.0000
  O   O2        1.0  0.8575919840020227  0.21143490234778567  0.6932170540242637  1.0000
  O   O3        1.0  0.973319494559486  0.8097437567682718  0.9739059152470575  1.0000
  O   O4        1.0  0.12439785233673575  0.3677316026449447  0.2661504768517101  1.0000
  O   O5        1.0  0.4447536040937574  0.8854236902199975  0.8933862781670722  1.0000
  O   O6        1.0  0.06107660131529506  0.22697082021015458  0.9845138940411862  1.0000
  O   O7        1.0  0.4338435763496899  0.5810941376568985  0.8215407240118622  1.0000
  O   O8        1.0  0.15460643229417015  0.7195357625825836  0.31612635378578796  1.0000
  O   O9        1.0  0.30181130120456157  0.3537896802988096  0.580478857890258  1.0000
  O   O10       1.0  0.9220287053631041  0.646658982224063  0.7628833049551795  1.0000
  O   O11       1.0  0.5890748758408295  0.6932584436553882  0.3416500080605607  1.0000
  O   O12       1.0  0.20192090219177364  0.9830329678527335  0.5440773300918278  1.0000
  O   O13       1.0  0.5529656489454677  0.09233201974227513  0.13986978896063473  1.0000
  O   O14       1.0  0.6634870080024571  0.46414669826765637  0.1451684315178125  1.0000
data_image63
_chemical_formula_structural       V8O14
_chemical_formula_sum              "V8 O14"
_cell_length_a       5.550582121701734
_cell_length_b       6.786413640792483
_cell_length_c       6.98693040473207
_cell_angle_alpha    64.37373990390658
_cell_angle_beta     70.29505848782973
_cell_angle_gamma    75.17998095895898

_space_group_name_H-M_alt    "P 1"
_space_group_IT_number       1

loop_
  _space_group_symop_operation_xyz
  'x, y, z'

loop_
  _atom_site_type_symbol
  _atom_site_label
  _atom_site_symmetry_multiplicity
  _atom_site_fract_x
  _atom_site_fract_y
  _atom_site_fract_z
  _atom_site_occupancy
  V   V1        1.0  0.18787493079287368  0.07752340984596663  0.245089512818113  1.0000
  V   V2        1.0  0.7664000171617242  0.387475763703287  0.3933059400933415  1.0000
  V   V3        1.0  0.23155005817207863  0.6434409730468275  0.5949413746375464  1.0000
  V   V4        1.0  0.29038468091031294  0.6243520211424828  0.1057253874568926  1.0000
  V   V5        1.0  0.7363983077033774  0.37288689443917333  0.8849696035544106  1.0000
  V   V6        1.0  0.21022444353200717  0.07753209781902319  0.7713711375394106  1.0000
  V   V7        1.0  0.7614879828023307  0.886982475169225  0.25910286915695163  1.0000
  V   V8        1.0  0.8348345355654727  0.9277012162252954  0.7358531144973983  1.0000
  O   O1        1.0  0.8081609673058313  0.02635739203061922  0.43343323996579014  1.0000
  O   O2        1.0  0.8440616853219974  0.26947613525842273  0.6585179612300847  1.0000
  O   O3        1.0  0.954470514552982  0.8627624622358798  0.982905504271102  1.0000
  O   O4        1.0  0.17148011498889754  0.35371410168287126  0.2862472972941774  1.0000
  O   O5        1.0  0.48615809303603896  0.8816597316198601  0.9078716452475452  1.0000
  O   O6        1.0  0.03433825767689609  0.161085657077302  0.020299627077513743  1.0000
  O   O7        1.0  0.3028666667236354  0.5043198922913253  0.8693857430776155  1.0000
  O   O8        1.0  0.13389128980890538  0.7574583576290371  0.31314482372811603  1.0000
  O   O9        1.0  0.394178090881208  0.26981086221606043  0.5434639414532701  1.0000
  O   O10       1.0  0.8460263658293244  0.6347338683585233  0.7484660078097356  1.0000
  O   O11       1.0  0.613651222694975  0.6501193970329099  0.4690387575798021  1.0000
  O   O12       1.0  0.18793047669520738  0.9723558623232477  0.5384421937482801  1.0000
  O   O13       1.0  0.5554277656989774  0.11984621434035413  0.08394034151847235  1.0000
  O   O14       1.0  0.5944002331451416  0.5212272733929052  0.14786767262071565  1.0000
data_image64
_chemical_formula_structural       V8O14
_chemical_formula_sum              "V8 O14"
_cell_length_a       5.550582121701734
_cell_length_b       6.786413640792483
_cell_length_c       6.98693040473207
_cell_angle_alpha    64.37373990390658
_cell_angle_beta     70.29505848782973
_cell_angle_gamma    75.17998095895898

_space_group_name_H-M_alt    "P 1"
_space_group_IT_number       1

loop_
  _space_group_symop_operation_xyz
  'x, y, z'

loop_
  _atom_site_type_symbol
  _atom_site_label
  _atom_site_symmetry_multiplicity
  _atom_site_fract_x
  _atom_site_fract_y
  _atom_site_fract_z
  _atom_site_occupancy
  V   V1        1.0  0.1567413358586134  0.10926507337838863  0.2369129846683426  1.0000
  V   V2        1.0  0.7427319819500589  0.3633849738703079  0.42207947558708775  1.0000
  V   V3        1.0  0.27679142067138907  0.6267724821380395  0.6301490145757559  1.0000
  V   V4        1.0  0.3245972153203028  0.6214275179507683  0.15117572863014858  1.0000
  V   V5        1.0  0.7267531280547008  0.33812331674197943  0.9324977491241372  1.0000
  V   V6        1.0  0.2022982859452551  0.07205415416696746  0.7264534830487769  1.0000
  V   V7        1.0  0.8155436325530926  0.8993839182369038  0.20585535131276506  1.0000
  V   V8        1.0  0.8333642092777392  0.9001139128276724  0.7115186525504361  1.0000
  O   O1        1.0  0.7655006444688347  0.030836709386035617  0.4188010138281751  1.0000
  O   O2        1.0  0.7751274618382477  0.2616987742401856  0.7017135827452431  1.0000
  O   O3        1.0  0.9483950724527718  0.9021411969457898  0.9025054865380066  1.0000
  O   O4        1.0  0.09341896183902983  0.3735670531686017  0.28564716268578405  1.0000
  O   O5        1.0  0.4066880937410136  0.9040866618801948  0.9031771241632396  1.0000
  O   O6        1.0  0.006562716945759463  0.2010663596378099  0.9882286679110451  1.0000
  O   O7        1.0  0.3509257025687977  0.5473637767093955  0.8848828761223441  1.0000
  O   O8        1.0  0.14136616637531504  0.7856260971192561  0.30201801853316473  1.0000
  O   O9        1.0  0.3990789267967705  0.34012039367058416  0.5489400176507672  1.0000
  O   O10       1.0  0.8984569973988585  0.6259033922077364  0.7167990408810738  1.0000
  O   O11       1.0  0.5621104123561392  0.6704642286231612  0.46465623788199095  1.0000
  O   O12       1.0  0.21257521095637594  0.9458858675829281  0.5402508369841451  1.0000
  O   O13       1.0  0.5155845414409844  0.1081494097412226  0.12971493198943101  1.0000
  O   O14       1.0  0.6672286867812323  0.4978248614413508  0.13672080192924715  1.0000
data_image65
_chemical_formula_structural       V8O14
_chemical_formula_sum              "V8 O14"
_cell_length_a       5.550582121701734
_cell_length_b       6.786413640792483
_cell_length_c       6.98693040473207
_cell_angle_alpha    64.37373990390658
_cell_angle_beta     70.29505848782973
_cell_angle_gamma    75.17998095895898

_space_group_name_H-M_alt    "P 1"
_space_group_IT_number       1

loop_
  _space_group_symop_operation_xyz
  'x, y, z'

loop_
  _atom_site_type_symbol
  _atom_site_label
  _atom_site_symmetry_multiplicity
  _atom_site_fract_x
  _atom_site_fract_y
  _atom_site_fract_z
  _atom_site_occupancy
  V   V1        1.0  0.22548064156700962  0.08743143095449099  0.24242808358690338  1.0000
  V   V2        1.0  0.7113003307330221  0.34328046764644915  0.44808874560945483  1.0000
  V   V3        1.0  0.28152372853644997  0.6478564242725402  0.5913009709257132  1.0000
  V   V4        1.0  0.22438122883432218  0.6322475547284289  0.10630878617653872  1.0000
  V   V5        1.0  0.7795322047421567  0.39096764643698784  0.8652198267033921  1.0000
  V   V6        1.0  0.18933821808825058  0.09342768266628035  0.758665630387307  1.0000
  V   V7        1.0  0.7950791628525942  0.9256268190138845  0.2388819357877841  1.0000
  V   V8        1.0  0.822875049216546  0.9159982764279455  0.7585668127279593  1.0000
  O   O1        1.0  0.6984405297541658  0.052042316696842915  0.46829736398904986  1.0000
  O   O2        1.0  0.8637900986410036  0.1937825652251482  0.7041441467339696  1.0000
  O   O3        1.0  0.9273995943591674  0.7300865166501537  0.0261799913827101  1.0000
  O   O4        1.0  0.07556357643968027  0.3268882154396338  0.32891253924078484  1.0000
  O   O5        1.0  0.46070263556352725  0.8699173289211133  0.8538618325047664  1.0000
  O   O6        1.0  0.03484958026328522  0.17450091243053115  0.021866508213210473  1.0000
  O   O7        1.0  0.4052400331525023  0.5180450386238207  0.8595774903863969  1.0000
  O   O8        1.0  0.14608518276198118  0.7771510435639626  0.32390487430992665  1.0000
  O   O9        1.0  0.3137863290020429  0.34909745940299586  0.5818851274341682  1.0000
  O   O10       1.0  0.9102373392498966  0.6665823554349796  0.691995641802419  1.0000
  O   O11       1.0  0.6588201591848606  0.6489132498386465  0.38428817989525443  1.0000
  O   O12       1.0  0.2488872094780956  0.9775962939790926  0.5272535212753096  1.0000
  O   O13       1.0  0.5580989509561662  0.0867557017520839  0.05531789518523953  1.0000
  O   O14       1.0  0.5929528800383658  0.4798253963028711  0.12081799870740402  1.0000
data_image66
_chemical_formula_structural       V8O14
_chemical_formula_sum              "V8 O14"
_cell_length_a       5.550582121701734
_cell_length_b       6.786413640792483
_cell_length_c       6.98693040473207
_cell_angle_alpha    64.37373990390658
_cell_angle_beta     70.29505848782973
_cell_angle_gamma    75.17998095895898

_space_group_name_H-M_alt    "P 1"
_space_group_IT_number       1

loop_
  _space_group_symop_operation_xyz
  'x, y, z'

loop_
  _atom_site_type_symbol
  _atom_site_label
  _atom_site_symmetry_multiplicity
  _atom_site_fract_x
  _atom_site_fract_y
  _atom_site_fract_z
  _atom_site_occupancy
  V   V1        1.0  0.16410005287929627  0.10482512048663647  0.21983320681487328  1.0000
  V   V2        1.0  0.7393144404010117  0.3621113577120119  0.3996655091106721  1.0000
  V   V3        1.0  0.24876134055279805  0.6384043644624608  0.5874840237381768  1.0000
  V   V4        1.0  0.28281643830513203  0.6193721796192644  0.08917328532081031  1.0000
  V   V5        1.0  0.7235129798528832  0.3738152938243971  0.8757246038239189  1.0000
  V   V6        1.0  0.18480827020026364  0.07084103026816148  0.7676789808743966  1.0000
  V   V7        1.0  0.8087471478908766  0.8639805685313844  0.2776113501819264  1.0000
  V   V8        1.0  0.7488131285341726  0.9890321205165272  0.7830728453212431  1.0000
  O   O1        1.0  0.8115260289688455  0.05209667238013167  0.44311468564674167  1.0000
  O   O2        1.0  0.8873295518152577  0.24632911733658192  0.6657912396162171  1.0000
  O   O3        1.0  0.9866664865859723  0.7854161993208398  0.9817360398866165  1.0000
  O   O4        1.0  0.1401793190195081  0.3632805437282768  0.285084807269212  1.0000
  O   O5        1.0  0.4180528615502091  0.8785878237219972  0.910185563550966  1.0000
  O   O6        1.0  0.01090814867446564  0.19835230240996246  0.9915085733656097  1.0000
  O   O7        1.0  0.3793632843291969  0.5102740745383328  0.8631069834175373  1.0000
  O   O8        1.0  0.1754512431300855  0.778778720123979  0.3105658566151828  1.0000
  O   O9        1.0  0.40467956978070035  0.329892543121903  0.5518071736998856  1.0000
  O   O10       1.0  0.9180017328088387  0.5968999166152915  0.7289756539654138  1.0000
  O   O11       1.0  0.6486116752744772  0.639214745991702  0.47523261751530527  1.0000
  O   O12       1.0  0.30408197548513627  0.9490179822454808  0.526728558599699  1.0000
  O   O13       1.0  0.5764796301596975  0.08100971640647847  0.09539042492766056  1.0000
  O   O14       1.0  0.6464229674595626  0.48975526366171995  0.14052197801179006  1.0000
data_image67
_chemical_formula_structural       V8O14
_chemical_formula_sum              "V8 O14"
_cell_length_a       5.550582121701734
_cell_length_b       6.786413640792483
_cell_length_c       6.98693040473207
_cell_angle_alpha    64.37373990390658
_cell_angle_beta     70.29505848782973
_cell_angle_gamma    75.17998095895898

_space_group_name_H-M_alt    "P 1"
_space_group_IT_number       1

loop_
  _space_group_symop_operation_xyz
  'x, y, z'

loop_
  _atom_site_type_symbol
  _atom_site_label
  _atom_site_symmetry_multiplicity
  _atom_site_fract_x
  _atom_site_fract_y
  _atom_site_fract_z
  _atom_site_occupancy
  V   V1        1.0  0.19560462534302128  0.09162196146814199  0.24768642383938128  1.0000
  V   V2        1.0  0.7059324427200916  0.398811892917508  0.42961073173658687  1.0000
  V   V3        1.0  0.297255596145349  0.6150850233930594  0.5976126937871357  1.0000
  V   V4        1.0  0.2983879950091021  0.6114914276732595  0.11088082198066518  1.0000
  V   V5        1.0  0.7009297596730899  0.4086339809801148  0.9062880705516106  1.0000
  V   V6        1.0  0.17862269478558368  0.11898606001199759  0.7181929916830279  1.0000
  V   V7        1.0  0.8215681800405096  0.9237194460611555  0.19483861954626583  1.0000
  V   V8        1.0  0.7807579641169069  0.9217823653265802  0.73560013170993  1.0000
  O   O1        1.0  0.7739391149339773  0.008164616295382033  0.4486953972818005  1.0000
  O   O2        1.0  0.8110216529870667  0.18146304820460754  0.7335956585857627  1.0000
  O   O3        1.0  0.9321060509160621  0.7820868712338626  0.014461171823912045  1.0000
  O   O4        1.0  0.0925096066862204  0.33863235428551325  0.3277218109538729  1.0000
  O   O5        1.0  0.47022724292781914  0.859780043077196  0.8363335032021803  1.0000
  O   O6        1.0  0.04431851551988801  0.1756407395736405  0.9983845191499201  1.0000
  O   O7        1.0  0.36921030467368965  0.49066196987516303  0.895558213758034  1.0000
  O   O8        1.0  0.1752512822000546  0.7627764142929634  0.2792066393993187  1.0000
  O   O9        1.0  0.32744086909084336  0.33986272860576067  0.6109559592865095  1.0000
  O   O10       1.0  0.9498674415319767  0.6688619117661131  0.6919503907712424  1.0000
  O   O11       1.0  0.6621719890979985  0.674506510506711  0.4276774302579138  1.0000
  O   O12       1.0  0.2737988248750493  0.8954676010527964  0.5839466078811111  1.0000
  O   O13       1.0  0.5270028603974979  0.08943695812970413  0.12401258851786807  1.0000
  O   O14       1.0  0.6494920493867553  0.4186138113449272  0.18675897732416838  1.0000
data_image68
_chemical_formula_structural       V8O14
_chemical_formula_sum              "V8 O14"
_cell_length_a       5.550582121701734
_cell_length_b       6.786413640792483
_cell_length_c       6.98693040473207
_cell_angle_alpha    64.37373990390658
_cell_angle_beta     70.29505848782973
_cell_angle_gamma    75.17998095895898

_space_group_name_H-M_alt    "P 1"
_space_group_IT_number       1

loop_
  _space_group_symop_operation_xyz
  'x, y, z'

loop_
  _atom_site_type_symbol
  _atom_site_label
  _atom_site_symmetry_multiplicity
  _atom_site_fract_x
  _atom_site_fract_y
  _atom_site_fract_z
  _atom_site_occupancy
  V   V1        1.0  0.18701975022913406  0.10618516076081465  0.25000019414948943  1.0000
  V   V2        1.0  0.7160578931282767  0.34289473953366995  0.4374921284145693  1.0000
  V   V3        1.0  0.26716573282239414  0.6778218389334201  0.555598309322884  1.0000
  V   V4        1.0  0.30763552415952483  0.6388038063849927  0.06779626135282853  1.0000
  V   V5        1.0  0.7261082675829464  0.3454495955788139  0.922784241481639  1.0000
  V   V6        1.0  0.178013483692833  0.12534681468836958  0.7380274707348587  1.0000
  V   V7        1.0  0.8054418516357124  0.9230350440435909  0.23766817254514686  1.0000
  V   V8        1.0  0.8579455760402522  0.8314627345282983  0.7750182458221242  1.0000
  O   O1        1.0  0.7670749749379566  0.019096678919323148  0.5017530380636032  1.0000
  O   O2        1.0  0.8664546281996136  0.1851483332032461  0.6908531886764772  1.0000
  O   O3        1.0  0.9059621882887027  0.8032466514801644  0.02018671312840259  1.0000
  O   O4        1.0  0.06735777812684914  0.40179897698955613  0.2748604768925309  1.0000
  O   O5        1.0  0.4638718796972611  0.8915656309313859  0.8879589867102053  1.0000
  O   O6        1.0  0.037828399295210244  0.17823946194807158  0.03397741719733815  1.0000
  O   O7        1.0  0.3773233070433729  0.5500653377186018  0.8321005236411473  1.0000
  O   O8        1.0  0.16959980152242957  0.7927674144217173  0.2810841719388775  1.0000
  O   O9        1.0  0.34054072922858886  0.36591255751832874  0.5566478203339028  1.0000
  O   O10       1.0  0.8716489511174703  0.5857293035872515  0.7573853297908355  1.0000
  O   O11       1.0  0.6371924741481074  0.6658838275371526  0.3889471834170843  1.0000
  O   O12       1.0  0.2481861458703448  0.9653849698467507  0.5276590547504029  1.0000
  O   O13       1.0  0.5017531004399122  0.10093342340571788  0.0996323234229608  1.0000
  O   O14       1.0  0.5865859265428343  0.4909510723493819  0.16932577857670175  1.0000
data_image69
_chemical_formula_structural       V8O14
_chemical_formula_sum              "V8 O14"
_cell_length_a       5.550582121701734
_cell_length_b       6.786413640792483
_cell_length_c       6.98693040473207
_cell_angle_alpha    64.37373990390658
_cell_angle_beta     70.29505848782973
_cell_angle_gamma    75.17998095895898

_space_group_name_H-M_alt    "P 1"
_space_group_IT_number       1

loop_
  _space_group_symop_operation_xyz
  'x, y, z'

loop_
  _atom_site_type_symbol
  _atom_site_label
  _atom_site_symmetry_multiplicity
  _atom_site_fract_x
  _atom_site_fract_y
  _atom_site_fract_z
  _atom_site_occupancy
  V   V1        1.0  0.18867151622516232  0.08749450490509127  0.27726178071933055  1.0000
  V   V2        1.0  0.7665524278567097  0.3581548032042653  0.38448107005453086  1.0000
  V   V3        1.0  0.2378689599222979  0.6072042647066306  0.6302664003234502  1.0000
  V   V4        1.0  0.291665277174215  0.640061515818545  0.08522197974680598  1.0000
  V   V5        1.0  0.742289436662983  0.35483426994120526  0.8764359605753533  1.0000
  V   V6        1.0  0.19004564411885952  0.11092060816373102  0.7528801509650659  1.0000
  V   V7        1.0  0.7944548209017708  0.8989554709661769  0.2590073778632227  1.0000
  V   V8        1.0  0.7919326664627198  0.9048304286244407  0.7435220950165934  1.0000
  O   O1        1.0  0.7665836720522156  0.04939180409600619  0.4571542947161074  1.0000
  O   O2        1.0  0.8966269032433093  0.23816540009761622  0.6554859973563069  1.0000
  O   O3        1.0  0.9136828799950244  0.8254482598981747  0.9908600475908499  1.0000
  O   O4        1.0  0.06975028900404506  0.4065326821879939  0.2446065708269737  1.0000
  O   O5        1.0  0.4586554375801193  0.8836093027665887  0.8942866975238396  1.0000
  O   O6        1.0  0.11095221784589535  0.22045197183020573  0.9558323237114142  1.0000
  O   O7        1.0  0.3584294310035026  0.5082896389498207  0.8761194127259783  1.0000
  O   O8        1.0  0.1581147303238206  0.7766445202355247  0.2875744945122858  1.0000
  O   O9        1.0  0.3836894582529689  0.353703509012402  0.5098811169333906  1.0000
  O   O10       1.0  0.8499093709667714  0.6138645495367576  0.7768923151626723  1.0000
  O   O11       1.0  0.6695695884839646  0.6530866557505465  0.45115903967717846  1.0000
  O   O12       1.0  0.21002412451331645  0.9559655277572092  0.5753196970397773  1.0000
  O   O13       1.0  0.5310417334192266  0.11267070088901535  0.13515575166016175  1.0000
  O   O14       1.0  0.5961832243620293  0.503222634521513  0.12810632474989678  1.0000
data_image70
_chemical_formula_structural       V8O14
_chemical_formula_sum              "V8 O14"
_cell_length_a       5.550582121701734
_cell_length_b       6.786413640792483
_cell_length_c       6.98693040473207
_cell_angle_alpha    64.37373990390658
_cell_angle_beta     70.29505848782973
_cell_angle_gamma    75.17998095895898

_space_group_name_H-M_alt    "P 1"
_space_group_IT_number       1

loop_
  _space_group_symop_operation_xyz
  'x, y, z'

loop_
  _atom_site_type_symbol
  _atom_site_label
  _atom_site_symmetry_multiplicity
  _atom_site_fract_x
  _atom_site_fract_y
  _atom_site_fract_z
  _atom_site_occupancy
  V   V1        1.0  0.18775207261703775  0.10907397798869596  0.1982244664861162  1.0000
  V   V2        1.0  0.7401924721197294  0.361713939231235  0.4424676434814579  1.0000
  V   V3        1.0  0.2958413704744628  0.6267658385909065  0.5720575444411493  1.0000
  V   V4        1.0  0.279090299242092  0.5993030682180215  0.13308187989606204  1.0000
  V   V5        1.0  0.726085860263598  0.37894012027560275  0.8973540938924384  1.0000
  V   V6        1.0  0.20160489770973367  0.0950452394423798  0.7125719188461053  1.0000
  V   V7        1.0  0.7880312555226997  0.9427214294275796  0.2509870289573116  1.0000
  V   V8        1.0  0.7873339061002592  0.8788828803734337  0.7894966877287768  1.0000
  O   O1        1.0  0.7395330138079449  0.06949612895592215  0.44457921552444307  1.0000
  O   O2        1.0  0.8638104829811936  0.24819937181028667  0.684982044303436  1.0000
  O   O3        1.0  0.9593175392290093  0.79462556952952  0.01885684088938655  1.0000
  O   O4        1.0  0.1731132695072244  0.32928237484236333  0.2834844539774183  1.0000
  O   O5        1.0  0.3950194067339408  0.8806974056520264  0.8564060593575745  1.0000
  O   O6        1.0  0.05143126174225084  0.183042784856953  0.9562565425720051  1.0000
  O   O7        1.0  0.34938720614700985  0.5066070018401592  0.8791936183593707  1.0000
  O   O8        1.0  0.12556508266715602  0.7981776282172377  0.32007851673377247  1.0000
  O   O9        1.0  0.36776203124395845  0.3435099749677817  0.5579034882700393  1.0000
  O   O10       1.0  0.9214979513651225  0.6523803209287605  0.7483846822014777  1.0000
  O   O11       1.0  0.6303469767724448  0.6632417248250561  0.46543791229193193  1.0000
  O   O12       1.0  0.1915217625921644  0.9277240411132652  0.5295331632918648  1.0000
  O   O13       1.0  0.553692964447405  0.0980104971153197  0.10592664187798469  1.0000
  O   O14       1.0  0.6321705375344451  0.5015465098437473  0.13580815605441038  1.0000
data_image71
_chemical_formula_structural       V8O14
_chemical_formula_sum              "V8 O14"
_cell_length_a       5.550582121701734
_cell_length_b       6.786413640792483
_cell_length_c       6.98693040473207
_cell_angle_alpha    64.37373990390658
_cell_angle_beta     70.29505848782973
_cell_angle_gamma    75.17998095895898

_space_group_name_H-M_alt    "P 1"
_space_group_IT_number       1

loop_
  _space_group_symop_operation_xyz
  'x, y, z'

loop_
  _atom_site_type_symbol
  _atom_site_label
  _atom_site_symmetry_multiplicity
  _atom_site_fract_x
  _atom_site_fract_y
  _atom_site_fract_z
  _atom_site_occupancy
  V   V1        1.0  0.16707042903968466  0.09895159682215977  0.2624466231858444  1.0000
  V   V2        1.0  0.7424577032189317  0.3519282066753223  0.4108537173883543  1.0000
  V   V3        1.0  0.2740537531044113  0.6389714491970001  0.626496359444544  1.0000
  V   V4        1.0  0.3069870834052464  0.6599801340381029  0.10219102919081052  1.0000
  V   V5        1.0  0.6734446353539338  0.357134289948972  0.9127648707078937  1.0000
  V   V6        1.0  0.1965778371811928  0.10269343272506648  0.7391454457974135  1.0000
  V   V7        1.0  0.7812955770392725  0.9071552253719967  0.21669767028730405  1.0000
  V   V8        1.0  0.7826288587498536  0.9017551640339916  0.7452645109112812  1.0000
  O   O1        1.0  0.7983022549013385  0.04641218958011219  0.4399443193897662  1.0000
  O   O2        1.0  0.8643385314925034  0.21204790720646918  0.6763763816603374  1.0000
  O   O3        1.0  0.05463561169957454  0.8073754773673371  0.9705767301970629  1.0000
  O   O4        1.0  0.06360850395187825  0.4018208990897001  0.2647966510893511  1.0000
  O   O5        1.0  0.4822712939462911  0.8859355236084444  0.8536236039045669  1.0000
  O   O6        1.0  0.027223177917030623  0.20178988498333905  0.9996800886990422  1.0000
  O   O7        1.0  0.3617953923553597  0.45857121383584376  0.8988415317239505  1.0000
  O   O8        1.0  0.20973789815928523  0.7952061923359498  0.2935181859450985  1.0000
  O   O9        1.0  0.36428890431969657  0.31088264133282273  0.6290755987157592  1.0000
  O   O10       1.0  0.8828957998180529  0.623354762401901  0.7238832596880472  1.0000
  O   O11       1.0  0.6438895754950698  0.640398028773293  0.4672139273728846  1.0000
  O   O12       1.0  0.33053538128946086  0.9979971843426403  0.498881008449587  1.0000
  O   O13       1.0  0.4970187946809612  0.09556512574497747  0.04452509194293757  1.0000
  O   O14       1.0  0.6425685934453917  0.43192247038079523  0.16603546833196647  1.0000
data_image72
_chemical_formula_structural       V8O14
_chemical_formula_sum              "V8 O14"
_cell_length_a       5.550582121701734
_cell_length_b       6.786413640792483
_cell_length_c       6.98693040473207
_cell_angle_alpha    64.37373990390658
_cell_angle_beta     70.29505848782973
_cell_angle_gamma    75.17998095895898

_space_group_name_H-M_alt    "P 1"
_space_group_IT_number       1

loop_
  _space_group_symop_operation_xyz
  'x, y, z'

loop_
  _atom_site_type_symbol
  _atom_site_label
  _atom_site_symmetry_multiplicity
  _atom_site_fract_x
  _atom_site_fract_y
  _atom_site_fract_z
  _atom_site_occupancy
  V   V1        1.0  0.17932116942103013  0.09613792744655325  0.22058021065539263  1.0000
  V   V2        1.0  0.7421046822312691  0.4033355904717676  0.3622229002125482  1.0000
  V   V3        1.0  0.27898863869009216  0.6488491782991666  0.5961739050857172  1.0000
  V   V4        1.0  0.26422141065578525  0.6166917291021371  0.14269372917354894  1.0000
  V   V5        1.0  0.7082974737117724  0.35996095528938704  0.8713184125766313  1.0000
  V   V6        1.0  0.2360491428984653  0.09939659001748381  0.7319108325244746  1.0000
  V   V7        1.0  0.8212029883524511  0.8984234021650357  0.2530438471871561  1.0000
  V   V8        1.0  0.7625731646506303  0.8983979489798772  0.792608932371996  1.0000
  O   O1        1.0  0.7892446454355375  0.04798010920445786  0.45885282004660155  1.0000
  O   O2        1.0  0.7670237734085595  0.20688468035893814  0.6861238821719374  1.0000
  O   O3        1.0  0.9722351931966476  0.7241768763464487  0.059501907062311954  1.0000
  O   O4        1.0  0.1396193263640948  0.33706668159638514  0.2702505750705556  1.0000
  O   O5        1.0  0.445490192171362  0.9204784857944821  0.9092626965991292  1.0000
  O   O6        1.0  0.9987881844809138  0.19659489603790326  0.9732791860936373  1.0000
  O   O7        1.0  0.34355574234322855  0.5485704586322393  0.8637699958176447  1.0000
  O   O8        1.0  0.23716013093124047  0.8019174937774922  0.31309318080825926  1.0000
  O   O9        1.0  0.358010438410404  0.367027979833413  0.5391208964896047  1.0000
  O   O10       1.0  0.8799798600225427  0.6071672195262657  0.6918405557404197  1.0000
  O   O11       1.0  0.6825560256190578  0.6457799862174293  0.4440023191142614  1.0000
  O   O12       1.0  0.17361278494542476  0.9305256550473008  0.6176842089153984  1.0000
  O   O13       1.0  0.5916219747877463  0.09660770131669297  0.1280804783922821  1.0000
  O   O14       1.0  0.617762820701082  0.4701779591116539  0.12263108816732421  1.0000
data_image73
_chemical_formula_structural       V8O14
_chemical_formula_sum              "V8 O14"
_cell_length_a       5.550582121701734
_cell_length_b       6.786413640792483
_cell_length_c       6.98693040473207
_cell_angle_alpha    64.37373990390658
_cell_angle_beta     70.29505848782973
_cell_angle_gamma    75.17998095895898

_space_group_name_H-M_alt    "P 1"
_space_group_IT_number       1

loop_
  _space_group_symop_operation_xyz
  'x, y, z'

loop_
  _atom_site_type_symbol
  _atom_site_label
  _atom_site_symmetry_multiplicity
  _atom_site_fract_x
  _atom_site_fract_y
  _atom_site_fract_z
  _atom_site_occupancy
  V   V1        1.0  0.1914739333481627  0.09995725172764171  0.2700047248229192  1.0000
  V   V2        1.0  0.7197588890111444  0.36647244497802717  0.43165923080023133  1.0000
  V   V3        1.0  0.2782881146038492  0.591415264394847  0.632198843210704  1.0000
  V   V4        1.0  0.30371358440305063  0.6424440628466782  0.052039559916373046  1.0000
  V   V5        1.0  0.7321006822530236  0.38187400959475376  0.9179813328041511  1.0000
  V   V6        1.0  0.13121446128719333  0.0843706479988924  0.7442687606741055  1.0000
  V   V7        1.0  0.8386498270184051  0.9184504502324673  0.22679424184920216  1.0000
  V   V8        1.0  0.8277440658745585  0.9055405527262322  0.7149847391322057  1.0000
  O   O1        1.0  0.7720209028946113  0.07317029556507545  0.42796827187266645  1.0000
  O   O2        1.0  0.8086179709812237  0.22689388557988918  0.7119834062018975  1.0000
  O   O3        1.0  0.9449369784134616  0.8470088317135198  0.9866211130255043  1.0000
  O   O4        1.0  0.10713574834694697  0.3845512288334837  0.2703005759257584  1.0000
  O   O5        1.0  0.44846863353154504  0.8570856976389905  0.8193511301781675  1.0000
  O   O6        1.0  0.038971766311756195  0.20246327250346222  0.02574361246177594  1.0000
  O   O7        1.0  0.37018462643769007  0.4545764268929847  0.9078760923044934  1.0000
  O   O8        1.0  0.23869203287092847  0.8084167958766519  0.24341798999156378  1.0000
  O   O9        1.0  0.32817739315128636  0.287577306933697  0.6374493275750149  1.0000
  O   O10       1.0  0.911345663995608  0.6269894980486288  0.6921325799015073  1.0000
  O   O11       1.0  0.6345934948017169  0.6199972592203671  0.4756680106977433  1.0000
  O   O12       1.0  0.18768032165043422  0.944513120576718  0.5419593697239369  1.0000
  O   O13       1.0  0.49986545895493  0.13737270260525722  0.14974487434724937  1.0000
  O   O14       1.0  0.5999006073062588  0.5224960125185785  0.13876924017015504  1.0000
data_image74
_chemical_formula_structural       V8O14
_chemical_formula_sum              "V8 O14"
_cell_length_a       5.550582121701734
_cell_length_b       6.786413640792483
_cell_length_c       6.98693040473207
_cell_angle_alpha    64.37373990390658
_cell_angle_beta     70.29505848782973
_cell_angle_gamma    75.17998095895898

_space_group_name_H-M_alt    "P 1"
_space_group_IT_number       1

loop_
  _space_group_symop_operation_xyz
  'x, y, z'

loop_
  _atom_site_type_symbol
  _atom_site_label
  _atom_site_symmetry_multiplicity
  _atom_site_fract_x
  _atom_site_fract_y
  _atom_site_fract_z
  _atom_site_occupancy
  V   V1        1.0  0.18937613516081497  0.09124783574207687  0.27306991226179267  1.0000
  V   V2        1.0  0.723032176593485  0.33835382437546635  0.43588970422429635  1.0000
  V   V3        1.0  0.2688531605295401  0.6556413273968746  0.5695884284645801  1.0000
  V   V4        1.0  0.2986356697309981  0.636106673780402  0.1016411175058698  1.0000
  V   V5        1.0  0.6811905669110759  0.3724768281351994  0.9115571963904885  1.0000
  V   V6        1.0  0.20814251542205559  0.07594074384911031  0.7373944481365572  1.0000
  V   V7        1.0  0.8014358692146324  0.8951856001806079  0.24885486306412166  1.0000
  V   V8        1.0  0.8044186967048829  0.907032075143036  0.769058561371721  1.0000
  O   O1        1.0  0.756528893784851  0.03344234263418549  0.43789773317332514  1.0000
  O   O2        1.0  0.854241122505531  0.2616212537177833  0.6606358591535991  1.0000
  O   O3        1.0  0.0005682111221601005  0.8791497692046466  0.9704493563954785  1.0000
  O   O4        1.0  0.07607321566918639  0.3844061312257987  0.2756662990189402  1.0000
  O   O5        1.0  0.4653478471163244  0.8758488059268195  0.8427564476252773  1.0000
  O   O6        1.0  0.9741640698850234  0.2217114330113932  0.9998968957536145  1.0000
  O   O7        1.0  0.38912983427633424  0.4875540218854867  0.8355846155740596  1.0000
  O   O8        1.0  0.17859356485791525  0.788983608364207  0.28779283849415993  1.0000
  O   O9        1.0  0.3929161536505085  0.3351510119161227  0.5413368989440361  1.0000
  O   O10       1.0  0.9563127452326191  0.5737016328837619  0.7798248926981817  1.0000
  O   O11       1.0  0.6386500740670115  0.6378749547552847  0.4057942955624638  1.0000
  O   O12       1.0  0.24850593281319003  0.9762288226099185  0.5377387215671501  1.0000
  O   O13       1.0  0.5319398518210082  0.13017465357600327  0.10392159388112582  1.0000
  O   O14       1.0  0.5889796178603485  0.47294641466209564  0.15898608295145258  1.0000
data_image75
_chemical_formula_structural       V8O14
_chemical_formula_sum              "V8 O14"
_cell_length_a       5.550582121701734
_cell_length_b       6.786413640792483
_cell_length_c       6.98693040473207
_cell_angle_alpha    64.37373990390658
_cell_angle_beta     70.29505848782973
_cell_angle_gamma    75.17998095895898

_space_group_name_H-M_alt    "P 1"
_space_group_IT_number       1

loop_
  _space_group_symop_operation_xyz
  'x, y, z'

loop_
  _atom_site_type_symbol
  _atom_site_label
  _atom_site_symmetry_multiplicity
  _atom_site_fract_x
  _atom_site_fract_y
  _atom_site_fract_z
  _atom_site_occupancy
  V   V1        1.0  0.16780442355277403  0.09716348522581238  0.2902675078394371  1.0000
  V   V2        1.0  0.7294601793716843  0.3904117681324255  0.37380744615517075  1.0000
  V   V3        1.0  0.2918753854951501  0.624665760722504  0.5782611427076754  1.0000
  V   V4        1.0  0.28564257268377957  0.6366422122952395  0.09654015118685585  1.0000
  V   V5        1.0  0.7211991675233386  0.33208098906540545  0.906923958433224  1.0000
  V   V6        1.0  0.1926401385398407  0.124674143135789  0.7398065560911418  1.0000
  V   V7        1.0  0.8102208064555877  0.9010732980371277  0.2502083671006977  1.0000
  V   V8        1.0  0.7935557335460951  0.8886869971037685  0.765079152661583  1.0000
  O   O1        1.0  0.8277796595455253  0.08114542149937895  0.4122368608569412  1.0000
  O   O2        1.0  0.8032647325379568  0.21222079462145227  0.6904848346800895  1.0000
  O   O3        1.0  0.947348708368396  0.8333005509510052  0.9706916928883129  1.0000
  O   O4        1.0  0.11775225064233975  0.37240763568543095  0.3172252386314576  1.0000
  O   O5        1.0  0.3836731513088136  0.8939799120005288  0.920383416606133  1.0000
  O   O6        1.0  0.04428918825258171  0.22197597773354444  0.0007699179291134434  1.0000
  O   O7        1.0  0.4174926571129985  0.47334487482403254  0.8761632358397476  1.0000
  O   O8        1.0  0.10686522688281466  0.7604022606633758  0.335108231411821  1.0000
  O   O9        1.0  0.36185361863355037  0.3462129500974651  0.5173259540201328  1.0000
  O   O10       1.0  0.9010057638727623  0.5973482166002104  0.7398482956800008  1.0000
  O   O11       1.0  0.6254824011644695  0.6878131175565403  0.43894847443417934  1.0000
  O   O12       1.0  0.3048116461242238  0.9227091012587026  0.5294461665585488  1.0000
  O   O13       1.0  0.5180532803129  0.07938161531111063  0.11163481937151253  1.0000
  O   O14       1.0  0.633843658628088  0.499443981647918  0.12460586716157808  1.0000
data_image76
_chemical_formula_structural       V8O14
_chemical_formula_sum              "V8 O14"
_cell_length_a       5.550582121701734
_cell_length_b       6.786413640792483
_cell_length_c       6.98693040473207
_cell_angle_alpha    64.37373990390658
_cell_angle_beta     70.29505848782973
_cell_angle_gamma    75.17998095895898

_space_group_name_H-M_alt    "P 1"
_space_group_IT_number       1

loop_
  _space_group_symop_operation_xyz
  'x, y, z'

loop_
  _atom_site_type_symbol
  _atom_site_label
  _atom_site_symmetry_multiplicity
  _atom_site_fract_x
  _atom_site_fract_y
  _atom_site_fract_z
  _atom_site_occupancy
  V   V1        1.0  0.1635922538406144  0.09027087287969669  0.23770000888243198  1.0000
  V   V2        1.0  0.7232273470679959  0.3496916095212121  0.45159881294193477  1.0000
  V   V3        1.0  0.29573598349075825  0.6477620303802067  0.5720492070912391  1.0000
  V   V4        1.0  0.3353033632610414  0.5915984895471819  0.13533160828550306  1.0000
  V   V5        1.0  0.7211444972913358  0.39291406218388936  0.8483407387359688  1.0000
  V   V6        1.0  0.17194532537990098  0.09517140062090482  0.7332594058471339  1.0000
  V   V7        1.0  0.8221166675612647  0.9013517321633553  0.24653190779261677  1.0000
  V   V8        1.0  0.7629582462834246  0.8862392624069002  0.7646444893327144  1.0000
  O   O1        1.0  0.7921169263037765  0.06873786287750214  0.43540860235003115  1.0000
  O   O2        1.0  0.7767297414036064  0.17375052168891836  0.7621726112016565  1.0000
  O   O3        1.0  0.9510288314012401  0.7876898510372529  0.9985571996625564  1.0000
  O   O4        1.0  0.06389252299309693  0.4065338832671133  0.32642240719547777  1.0000
  O   O5        1.0  0.40867566895256235  0.9376528134665597  0.9212616575274817  1.0000
  O   O6        1.0  0.04241411036958145  0.22192352325993667  0.9735485274689117  1.0000
  O   O7        1.0  0.43747608381684944  0.5884782153665639  0.8184097036122419  1.0000
  O   O8        1.0  0.152814488696468  0.7724133330770628  0.2746870797102708  1.0000
  O   O9        1.0  0.3644373704097246  0.31381224955880127  0.557251489200787  1.0000
  O   O10       1.0  0.982682710832449  0.5708004428123911  0.6669348496975894  1.0000
  O   O11       1.0  0.6390732587737663  0.656210221581211  0.4318768281187166  1.0000
  O   O12       1.0  0.1578302289721923  0.9342464144917065  0.5922047294561307  1.0000
  O   O13       1.0  0.5501689842748387  0.1463645860076465  0.15270148995481045  1.0000
  O   O14       1.0  0.6616887213481465  0.5370702806873479  0.116825506755758  1.0000
data_image77
_chemical_formula_structural       V8O14
_chemical_formula_sum              "V8 O14"
_cell_length_a       5.550582121701734
_cell_length_b       6.786413640792483
_cell_length_c       6.98693040473207
_cell_angle_alpha    64.37373990390658
_cell_angle_beta     70.29505848782973
_cell_angle_gamma    75.17998095895898

_space_group_name_H-M_alt    "P 1"
_space_group_IT_number       1

loop_
  _space_group_symop_operation_xyz
  'x, y, z'

loop_
  _atom_site_type_symbol
  _atom_site_label
  _atom_site_symmetry_multiplicity
  _atom_site_fract_x
  _atom_site_fract_y
  _atom_site_fract_z
  _atom_site_occupancy
  V   V1        1.0  0.2054079825207121  0.08353092560075628  0.26464443720864117  1.0000
  V   V2        1.0  0.7064604504738763  0.3692977037409002  0.407406097434257  1.0000
  V   V3        1.0  0.278675931009394  0.6432448344904941  0.5680053357566341  1.0000
  V   V4        1.0  0.27816204142745515  0.6250810459532193  0.08605964653033561  1.0000
  V   V5        1.0  0.744864724952377  0.3738258960150012  0.9003937592824692  1.0000
  V   V6        1.0  0.20211263153390147  0.09051837388273658  0.7646111006537606  1.0000
  V   V7        1.0  0.745561887400668  0.9194351825012868  0.2762174594497422  1.0000
  V   V8        1.0  0.8145891808327196  0.9180502397046769  0.7811307061084323  1.0000
  O   O1        1.0  0.7818125393847702  0.06468872949014658  0.4794549772248593  1.0000
  O   O2        1.0  0.8814417665189712  0.23255765448055843  0.6627560921508109  1.0000
  O   O3        1.0  0.940905223297358  0.8158561355582644  0.005538466530328634  1.0000
  O   O4        1.0  0.04999674393994593  0.3979502105348272  0.22935489842448886  1.0000
  O   O5        1.0  0.450992196932703  0.8527601117833784  0.8664942819378376  1.0000
  O   O6        1.0  0.019977932850450367  0.12855353291143565  0.029121059153660953  1.0000
  O   O7        1.0  0.4357378213912129  0.5489394527981273  0.784382778310107  1.0000
  O   O8        1.0  0.12227220920437067  0.8084953679271397  0.3264538796124905  1.0000
  O   O9        1.0  0.37930533014970225  0.35248462306850387  0.5140923566212825  1.0000
  O   O10       1.0  0.9263387676760412  0.6356521697735239  0.7244017569608986  1.0000
  O   O11       1.0  0.6287789479308962  0.6613785825120809  0.40971049576289537  1.0000
  O   O12       1.0  0.2848600142557601  0.9346699451102631  0.5595216803165315  1.0000
  O   O13       1.0  0.5496131743096867  0.08292826576922953  0.048205582288334464  1.0000
  O   O14       1.0  0.598327831901777  0.38685529791178197  0.1988055293037516  1.0000
data_image78
_chemical_formula_structural       V8O14
_chemical_formula_sum              "V8 O14"
_cell_length_a       5.550582121701734
_cell_length_b       6.786413640792483
_cell_length_c       6.98693040473207
_cell_angle_alpha    64.37373990390658
_cell_angle_beta     70.29505848782973
_cell_angle_gamma    75.17998095895898

_space_group_name_H-M_alt    "P 1"
_space_group_IT_number       1

loop_
  _space_group_symop_operation_xyz
  'x, y, z'

loop_
  _atom_site_type_symbol
  _atom_site_label
  _atom_site_symmetry_multiplicity
  _atom_site_fract_x
  _atom_site_fract_y
  _atom_site_fract_z
  _atom_site_occupancy
  V   V1        1.0  0.1918824503784538  0.09236727064810206  0.267784503028958  1.0000
  V   V2        1.0  0.7344247030626145  0.37466187481712326  0.40554012960774205  1.0000
  V   V3        1.0  0.2938792255518792  0.6500269534309322  0.5844376127491863  1.0000
  V   V4        1.0  0.2603190359723823  0.6250500226475036  0.10712093130047193  1.0000
  V   V5        1.0  0.6773276033665059  0.41334667536828756  0.8888598748978753  1.0000
  V   V6        1.0  0.21112343703809364  0.10654716029669585  0.741654447634038  1.0000
  V   V7        1.0  0.8043966982098509  0.8799252092893128  0.24276585475411752  1.0000
  V   V8        1.0  0.8046941132348907  0.888637832041212  0.722031030449601  1.0000
  O   O1        1.0  0.7875103313155204  0.08266279001308456  0.3909830157887539  1.0000
  O   O2        1.0  0.8498207468234855  0.21711767251558955  0.7134620569244423  1.0000
  O   O3        1.0  0.9245517763520635  0.7905459644565367  0.004062680670949614  1.0000
  O   O4        1.0  0.137465193402314  0.3492424546341869  0.2828748419365229  1.0000
  O   O5        1.0  0.4795981277664338  0.9035385256682746  0.8614572186587058  1.0000
  O   O6        1.0  0.041819883782092074  0.1386160641003275  0.030633353619142024  1.0000
  O   O7        1.0  0.31152142632111274  0.497345643433106  0.9096060205518172  1.0000
  O   O8        1.0  0.1813435689679189  0.8088112311367407  0.26994930007824897  1.0000
  O   O9        1.0  0.3819127155053438  0.3410082138919092  0.5566406202440091  1.0000
  O   O10       1.0  0.9355323179322761  0.647328586740473  0.7014788058041415  1.0000
  O   O11       1.0  0.6599117302396535  0.6086890262022108  0.5241721900622147  1.0000
  O   O12       1.0  0.17755188243221826  0.9761548777842954  0.572951352807314  1.0000
  O   O13       1.0  0.5174967257099484  0.09757568147057524  0.17164814888730395  1.0000
  O   O14       1.0  0.6634633721306479  0.42257698781904757  0.12676518513627807  1.0000
data_image79
_chemical_formula_structural       V8O14
_chemical_formula_sum              "V8 O14"
_cell_length_a       5.550582121701734
_cell_length_b       6.786413640792483
_cell_length_c       6.98693040473207
_cell_angle_alpha    64.37373990390658
_cell_angle_beta     70.29505848782973
_cell_angle_gamma    75.17998095895898

_space_group_name_H-M_alt    "P 1"
_space_group_IT_number       1

loop_
  _space_group_symop_operation_xyz
  'x, y, z'

loop_
  _atom_site_type_symbol
  _atom_site_label
  _atom_site_symmetry_multiplicity
  _atom_site_fract_x
  _atom_site_fract_y
  _atom_site_fract_z
  _atom_site_occupancy
  V   V1        1.0  0.1762337286965378  0.13685201078525486  0.2425259090760984  1.0000
  V   V2        1.0  0.7349351033037137  0.37509546646674613  0.3973223148526727  1.0000
  V   V3        1.0  0.2674401984197657  0.6293612521616435  0.6260333972114758  1.0000
  V   V4        1.0  0.3434561075709708  0.6327846517421827  0.08864574731872574  1.0000
  V   V5        1.0  0.703617861828469  0.3107967523750194  0.9163439313855761  1.0000
  V   V6        1.0  0.19464327706591342  0.0745824606218537  0.7160029841297388  1.0000
  V   V7        1.0  0.8273481575444578  0.9150410290571583  0.2633063094649317  1.0000
  V   V8        1.0  0.7815831861326193  0.8905475352637056  0.7853129481381003  1.0000
  O   O1        1.0  0.7574842088315014  0.05960019288994208  0.47846455514638037  1.0000
  O   O2        1.0  0.8718748694607805  0.259296993368404  0.6776422560752848  1.0000
  O   O3        1.0  0.9477059306959392  0.8299562236831053  0.9827262172493433  1.0000
  O   O4        1.0  0.07144715980646371  0.4417519448355335  0.217415063543635  1.0000
  O   O5        1.0  0.4490689913647876  0.9167911025963279  0.8751807515446265  1.0000
  O   O6        1.0  0.08788890859195829  0.1611042123902631  0.9892811460227613  1.0000
  O   O7        1.0  0.3713462890919221  0.5469939579924696  0.8513942929579738  1.0000
  O   O8        1.0  0.18525068005474984  0.7341225303215282  0.2996953175686219  1.0000
  O   O9        1.0  0.3094175313066951  0.3864682372657725  0.5657123753460735  1.0000
  O   O10       1.0  0.8854804859266123  0.6390714205171535  0.7165880095498766  1.0000
  O   O11       1.0  0.6168877341526636  0.6712113140120424  0.39371463411176116  1.0000
  O   O12       1.0  0.16199652904830045  0.9211902285113204  0.5497953386356889  1.0000
  O   O13       1.0  0.5168381567392342  0.06533920320405517  0.15001094295399195  1.0000
  O   O14       1.0  0.6440351888802159  0.4601785291808051  0.13011610419831565  1.0000
data_image80
_chemical_formula_structural       V8O14
_chemical_formula_sum              "V8 O14"
_cell_length_a       5.550582121701734
_cell_length_b       6.786413640792483
_cell_length_c       6.98693040473207
_cell_angle_alpha    64.37373990390658
_cell_angle_beta     70.29505848782973
_cell_angle_gamma    75.17998095895898

_space_group_name_H-M_alt    "P 1"
_space_group_IT_number       1

loop_
  _space_group_symop_operation_xyz
  'x, y, z'

loop_
  _atom_site_type_symbol
  _atom_site_label
  _atom_site_symmetry_multiplicity
  _atom_site_fract_x
  _atom_site_fract_y
  _atom_site_fract_z
  _atom_site_occupancy
  V   V1        1.0  0.15468313121638583  0.10362469730492632  0.21619796773344072  1.0000
  V   V2        1.0  0.7671230893954347  0.3688292304739583  0.38977226305632523  1.0000
  V   V3        1.0  0.25848165689643665  0.627578375301869  0.5939996329471138  1.0000
  V   V4        1.0  0.2974495429907747  0.6418204418950123  0.07186615167864699  1.0000
  V   V5        1.0  0.7298074570132564  0.3624033930045396  0.9382158816529438  1.0000
  V   V6        1.0  0.24647216003007433  0.08252930086945016  0.758808888246196  1.0000
  V   V7        1.0  0.7644186801260834  0.872660825258287  0.2368424775693089  1.0000
  V   V8        1.0  0.8334677105821201  0.9159135721009859  0.7342832377921671  1.0000
  O   O1        1.0  0.7115302034275132  0.07346913199679526  0.4438157647833393  1.0000
  O   O2        1.0  0.772030748324918  0.2398274721425306  0.7010596388894169  1.0000
  O   O3        1.0  0.9726594722753154  0.7693380087654826  0.9964144499395469  1.0000
  O   O4        1.0  0.12639530674193766  0.34509200710538296  0.33085558260126086  1.0000
  O   O5        1.0  0.4601247203280634  0.8988870772676195  0.9037499634965839  1.0000
  O   O6        1.0  0.03984807936574519  0.1937902776333986  0.958052253286641  1.0000
  O   O7        1.0  0.3403668547210771  0.48246845253036463  0.9203849497179001  1.0000
  O   O8        1.0  0.13408772268608687  0.8143449076233256  0.27314314686436286  1.0000
  O   O9        1.0  0.30436519779286264  0.34075771474965305  0.5688114434180692  1.0000
  O   O10       1.0  0.8906379076065716  0.6315602529837534  0.7687251646708316  1.0000
  O   O11       1.0  0.67055467605183  0.6203978798289079  0.4810967653438972  1.0000
  O   O12       1.0  0.18621971118086228  0.9585599110031287  0.5868646341635679  1.0000
  O   O13       1.0  0.5681202591871823  0.14741354970524895  0.1154654455308019  1.0000
  O   O14       1.0  0.6450550501485095  0.5468300875467499  0.12692817215482682  1.0000
data_image81
_chemical_formula_structural       V8O14
_chemical_formula_sum              "V8 O14"
_cell_length_a       5.550582121701734
_cell_length_b       6.786413640792483
_cell_length_c       6.98693040473207
_cell_angle_alpha    64.37373990390658
_cell_angle_beta     70.29505848782973
_cell_angle_gamma    75.17998095895898

_space_group_name_H-M_alt    "P 1"
_space_group_IT_number       1

loop_
  _space_group_symop_operation_xyz
  'x, y, z'

loop_
  _atom_site_type_symbol
  _atom_site_label
  _atom_site_symmetry_multiplicity
  _atom_site_fract_x
  _atom_site_fract_y
  _atom_site_fract_z
  _atom_site_occupancy
  V   V1        1.0  0.21283948051337132  0.0893188680592189  0.264362314888235  1.0000
  V   V2        1.0  0.7385696228467075  0.4143271176422771  0.36339826000771036  1.0000
  V   V3        1.0  0.2496848916164434  0.610068981462592  0.5675627227294182  1.0000
  V   V4        1.0  0.28103400319050553  0.6095347602317064  0.08634800948875837  1.0000
  V   V5        1.0  0.674606766320251  0.35910851589361087  0.8963677039128725  1.0000
  V   V6        1.0  0.16101218311027243  0.07433211352511315  0.8256624185338802  1.0000
  V   V7        1.0  0.8175847877715224  0.9610055804112602  0.24095516751785045  1.0000
  V   V8        1.0  0.8172360331041525  0.8619921487522629  0.785722912552871  1.0000
  O   O1        1.0  0.8152942133029459  0.08199816590929336  0.44393973746847104  1.0000
  O   O2        1.0  0.9210105415893514  0.28759345237750095  0.6176841071920091  1.0000
  O   O3        1.0  0.9452474896701222  0.7915057281305071  0.02488700650710518  1.0000
  O   O4        1.0  0.06881029823135223  0.41168214327371866  0.2409731871408483  1.0000
  O   O5        1.0  0.45867667123850314  0.8758423107495068  0.8764985780876702  1.0000
  O   O6        1.0  0.09822953330172772  0.17629939087826002  0.02457975745679352  1.0000
  O   O7        1.0  0.3821193983922468  0.5496563182246942  0.8093426938531074  1.0000
  O   O8        1.0  0.1888614898079368  0.7816030432495348  0.296946508068739  1.0000
  O   O9        1.0  0.31970204971735433  0.32948234744613897  0.6075619796982125  1.0000
  O   O10       1.0  0.9182154519641854  0.6114594942214546  0.7825191232905435  1.0000
  O   O11       1.0  0.6201400112997527  0.6946303713781015  0.38615751222189904  1.0000
  O   O12       1.0  0.21563205725691045  0.9075972340833125  0.5892580534611024  1.0000
  O   O13       1.0  0.5460701063515214  0.1135135011427245  0.034976722485806515  1.0000
  O   O14       1.0  0.635668910519718  0.44346398596964737  0.1490165269889949  1.0000
data_image82
_chemical_formula_structural       V8O14
_chemical_formula_sum              "V8 O14"
_cell_length_a       5.550582121701734
_cell_length_b       6.786413640792483
_cell_length_c       6.98693040473207
_cell_angle_alpha    64.37373990390658
_cell_angle_beta     70.29505848782973
_cell_angle_gamma    75.17998095895898

_space_group_name_H-M_alt    "P 1"
_space_group_IT_number       1

loop_
  _space_group_symop_operation_xyz
  'x, y, z'

loop_
  _atom_site_type_symbol
  _atom_site_label
  _atom_site_symmetry_multiplicity
  _atom_site_fract_x
  _atom_site_fract_y
  _atom_site_fract_z
  _atom_site_occupancy
  V   V1        1.0  0.20175594540050296  0.08383133147858766  0.23430382437682562  1.0000
  V   V2        1.0  0.7177367681312097  0.3705514202673521  0.39799546385305073  1.0000
  V   V3        1.0  0.2871282099495176  0.6400494623073868  0.6053467051045915  1.0000
  V   V4        1.0  0.25258406235195147  0.6329176299628959  0.08878889368209807  1.0000
  V   V5        1.0  0.7659360968888327  0.3731726052363807  0.9351000730846166  1.0000
  V   V6        1.0  0.18742467429877535  0.11427077236500675  0.7378184142329394  1.0000
  V   V7        1.0  0.8175754297399552  0.8708439938218926  0.2485613196690953  1.0000
  V   V8        1.0  0.7867795998463593  0.8986819027098345  0.7787770929366803  1.0000
  O   O1        1.0  0.756356532802845  0.06319852937070129  0.45029122483571177  1.0000
  O   O2        1.0  0.7311765836991668  0.23354390516203638  0.7326868155889835  1.0000
  O   O3        1.0  0.9582266649049044  0.7736541259180144  0.016476770478631497  1.0000
  O   O4        1.0  0.06090096373954405  0.3776134884896983  0.29246445117500275  1.0000
  O   O5        1.0  0.4523063889868942  0.8895600410115972  0.8211335896660727  1.0000
  O   O6        1.0  0.0693061548607293  0.14602361345672488  0.005319936129541236  1.0000
  O   O7        1.0  0.3871224884263513  0.5003760221892429  0.904642345896443  1.0000
  O   O8        1.0  0.24789587613449118  0.7860468907892049  0.24507032239526128  1.0000
  O   O9        1.0  0.3395398416991842  0.34334953017807823  0.513163901643857  1.0000
  O   O10       1.0  0.9131245504629005  0.6583281535330117  0.6524937524905224  1.0000
  O   O11       1.0  0.645749314002993  0.6404748059182104  0.4632611174855368  1.0000
  O   O12       1.0  0.18308687446250949  0.985179118426949  0.547007436927788  1.0000
  O   O13       1.0  0.5320022706646981  0.10874930769204094  0.1520566047062926  1.0000
  O   O14       1.0  0.6447879500550653  0.5390703876241721  0.09595901023007901  1.0000
data_image83
_chemical_formula_structural       V8O14
_chemical_formula_sum              "V8 O14"
_cell_length_a       5.550582121701734
_cell_length_b       6.786413640792483
_cell_length_c       6.98693040473207
_cell_angle_alpha    64.37373990390658
_cell_angle_beta     70.29505848782973
_cell_angle_gamma    75.17998095895898

_space_group_name_H-M_alt    "P 1"
_space_group_IT_number       1

loop_
  _space_group_symop_operation_xyz
  'x, y, z'

loop_
  _atom_site_type_symbol
  _atom_site_label
  _atom_site_symmetry_multiplicity
  _atom_site_fract_x
  _atom_site_fract_y
  _atom_site_fract_z
  _atom_site_occupancy
  V   V1        1.0  0.19141834742887945  0.10643975365205229  0.23575377948478723  1.0000
  V   V2        1.0  0.7331269303140773  0.37578775488324534  0.4005335477663165  1.0000
  V   V3        1.0  0.2803968603160118  0.6237722899094807  0.5527018222520367  1.0000
  V   V4        1.0  0.28143056553761403  0.638987709969929  0.0931910588465159  1.0000
  V   V5        1.0  0.6872564300760081  0.3645960189682541  0.8935258444729983  1.0000
  V   V6        1.0  0.18821172135414982  0.08053871593439269  0.7724983957872297  1.0000
  V   V7        1.0  0.8003443818994839  0.9220087816717598  0.2502247623570805  1.0000
  V   V8        1.0  0.8169094126208908  0.9350629070487078  0.7392417780483974  1.0000
  O   O1        1.0  0.7122450256129286  0.024575458401273457  0.4762557492468687  1.0000
  O   O2        1.0  0.8827585993928727  0.2157925045439165  0.6893022208711244  1.0000
  O   O3        1.0  0.9664493902022795  0.784703465205083  0.009171074263539358  1.0000
  O   O4        1.0  0.14262343627163337  0.3791462132251164  0.2684271048346927  1.0000
  O   O5        1.0  0.4843195038789271  0.9351100250001009  0.9280179384445764  1.0000
  O   O6        1.0  0.02811369385659068  0.17886907801194912  0.017300900286309207  1.0000
  O   O7        1.0  0.3210678253928951  0.565724106664461  0.847635635414436  1.0000
  O   O8        1.0  0.2261830867387441  0.7613154162373652  0.29279964371448336  1.0000
  O   O9        1.0  0.40650987949932066  0.3054149738098288  0.5809741627591284  1.0000
  O   O10       1.0  0.8700339501694603  0.6578668948751906  0.7167420182938147  1.0000
  O   O11       1.0  0.6137098691358768  0.6446463155667065  0.4559078438730804  1.0000
  O   O12       1.0  0.2456236953426015  0.9300192739119886  0.552066777466103  1.0000
  O   O13       1.0  0.5583658792187188  0.06797551299181362  0.13160763753298668  1.0000
  O   O14       1.0  0.5875520050579274  0.39756521609194145  0.20504301558297638  1.0000
data_image84
_chemical_formula_structural       V8O14
_chemical_formula_sum              "V8 O14"
_cell_length_a       5.550582121701734
_cell_length_b       6.786413640792483
_cell_length_c       6.98693040473207
_cell_angle_alpha    64.37373990390658
_cell_angle_beta     70.29505848782973
_cell_angle_gamma    75.17998095895898

_space_group_name_H-M_alt    "P 1"
_space_group_IT_number       1

loop_
  _space_group_symop_operation_xyz
  'x, y, z'

loop_
  _atom_site_type_symbol
  _atom_site_label
  _atom_site_symmetry_multiplicity
  _atom_site_fract_x
  _atom_site_fract_y
  _atom_site_fract_z
  _atom_site_occupancy
  V   V1        1.0  0.14170990022538166  0.10680085945351134  0.254809273909734  1.0000
  V   V2        1.0  0.7038021001505813  0.37244669893440635  0.3920699337383017  1.0000
  V   V3        1.0  0.2666866928316341  0.6455796859678101  0.6207020179120559  1.0000
  V   V4        1.0  0.271130065425286  0.6005528128990276  0.13118745901566442  1.0000
  V   V5        1.0  0.7379375852756141  0.3670377555483692  0.8970303984905956  1.0000
  V   V6        1.0  0.20628747858468058  0.08341355134482882  0.7584861051141837  1.0000
  V   V7        1.0  0.780526488659957  0.9150218027153281  0.254553899705296  1.0000
  V   V8        1.0  0.8292868421927077  0.8992263185264019  0.7356992800523608  1.0000
  O   O1        1.0  0.7949680272367294  0.04228644562742173  0.45422682155162164  1.0000
  O   O2        1.0  0.8714910505272677  0.2240840276354332  0.6648825261599625  1.0000
  O   O3        1.0  0.01167120867174587  0.7859500598889871  0.017337907253595963  1.0000
  O   O4        1.0  0.0871128037336475  0.37281966957001716  0.2914138189191859  1.0000
  O   O5        1.0  0.48684861321036793  0.8882778471734089  0.8444061501980661  1.0000
  O   O6        1.0  0.056045848051017574  0.179385488098369  0.01463030106907552  1.0000
  O   O7        1.0  0.3605737287465402  0.47132540895878977  0.8942677698443698  1.0000
  O   O8        1.0  0.15479206605009782  0.8054672894534284  0.28330655678456035  1.0000
  O   O9        1.0  0.3621157507633571  0.369560470802967  0.5657738950351858  1.0000
  O   O10       1.0  0.9352941722611112  0.6266732226306275  0.684191070683217  1.0000
  O   O11       1.0  0.6729253054495085  0.6557744019809  0.40999282675179693  1.0000
  O   O12       1.0  0.22820762027987296  0.968386498708889  0.5276246471719594  1.0000
  O   O13       1.0  0.5257682677585181  0.1094650744258253  0.08017941294837741  1.0000
  O   O14       1.0  0.6346858924183252  0.5221339965466463  0.09802637327224004  1.0000
data_image85
_chemical_formula_structural       V8O14
_chemical_formula_sum              "V8 O14"
_cell_length_a       5.550582121701734
_cell_length_b       6.786413640792483
_cell_length_c       6.98693040473207
_cell_angle_alpha    64.37373990390658
_cell_angle_beta     70.29505848782973
_cell_angle_gamma    75.17998095895898

_space_group_name_H-M_alt    "P 1"
_space_group_IT_number       1

loop_
  _space_group_symop_operation_xyz
  'x, y, z'

loop_
  _atom_site_type_symbol
  _atom_site_label
  _atom_site_symmetry_multiplicity
  _atom_site_fract_x
  _atom_site_fract_y
  _atom_site_fract_z
  _atom_site_occupancy
  V   V1        1.0  0.15161578789200814  0.11576693770289828  0.25813828945814515  1.0000
  V   V2        1.0  0.7414997281694932  0.38148519453321006  0.4311472100979465  1.0000
  V   V3        1.0  0.24952997924892692  0.6659747422101606  0.5595517323739924  1.0000
  V   V4        1.0  0.3046092175471675  0.6403882894617298  0.06824329648384206  1.0000
  V   V5        1.0  0.6924030526101933  0.33971464597117446  0.954544446303178  1.0000
  V   V6        1.0  0.21453152644341983  0.13007607208030114  0.7337238505263444  1.0000
  V   V7        1.0  0.8465035227038297  0.8723074437422367  0.26669333465116596  1.0000
  V   V8        1.0  0.8166899073883802  0.865009025738317  0.7442373155971329  1.0000
  O   O1        1.0  0.7715643558242454  0.014026378510111443  0.4527882608653375  1.0000
  O   O2        1.0  0.7974951300547624  0.20756418294448575  0.7044034624561741  1.0000
  O   O3        1.0  0.9917573768625964  0.7921078507749703  0.009448652217887155  1.0000
  O   O4        1.0  0.0950595522802226  0.378784226029853  0.25335746782695956  1.0000
  O   O5        1.0  0.4794799525643594  0.9164527861926737  0.8481492769256814  1.0000
  O   O6        1.0  0.9906113195297149  0.18136892030705296  0.010764525521276977  1.0000
  O   O7        1.0  0.37398160392840724  0.535807898412599  0.8528271943569892  1.0000
  O   O8        1.0  0.18136969018511911  0.8022712687273176  0.27901754830763503  1.0000
  O   O9        1.0  0.35170702355609257  0.3572913144825316  0.5183494569630012  1.0000
  O   O10       1.0  0.879419287910501  0.5924447165737539  0.7130698236188714  1.0000
  O   O11       1.0  0.6275674525493049  0.677229602610661  0.41082663158952715  1.0000
  O   O12       1.0  0.20627452466828197  0.9533083067541183  0.5633279944296005  1.0000
  O   O13       1.0  0.5334430060844935  0.08608361735671444  0.15678141925124534  1.0000
  O   O14       1.0  0.6346269124298565  0.4597124329760776  0.15634437365013362  1.0000
data_image86
_chemical_formula_structural       V8O14
_chemical_formula_sum              "V8 O14"
_cell_length_a       5.550582121701734
_cell_length_b       6.786413640792483
_cell_length_c       6.98693040473207
_cell_angle_alpha    64.37373990390658
_cell_angle_beta     70.29505848782973
_cell_angle_gamma    75.17998095895898

_space_group_name_H-M_alt    "P 1"
_space_group_IT_number       1

loop_
  _space_group_symop_operation_xyz
  'x, y, z'

loop_
  _atom_site_type_symbol
  _atom_site_label
  _atom_site_symmetry_multiplicity
  _atom_site_fract_x
  _atom_site_fract_y
  _atom_site_fract_z
  _atom_site_occupancy
  V   V1        1.0  0.16068421733088667  0.1358947058847275  0.2443479821421221  1.0000
  V   V2        1.0  0.7313082102319269  0.3742743803381916  0.3806494734014394  1.0000
  V   V3        1.0  0.29931608894666695  0.618325084305998  0.5764568653986213  1.0000
  V   V4        1.0  0.32112093966046795  0.6262802190811987  0.10999232827627574  1.0000
  V   V5        1.0  0.7092324412616002  0.38295123739335757  0.8867597197653639  1.0000
  V   V6        1.0  0.1507181679338368  0.07952234605544081  0.7300892693368619  1.0000
  V   V7        1.0  0.8201119491092576  0.9064619166125875  0.2498100210524437  1.0000
  V   V8        1.0  0.7693231743346125  0.8773574836571273  0.8126719870756421  1.0000
  O   O1        1.0  0.7909264240124098  0.052603962827674655  0.4595754435359166  1.0000
  O   O2        1.0  0.8106106417391885  0.20870376549045752  0.7109484664474639  1.0000
  O   O3        1.0  0.9643800535600632  0.7897167783133836  0.03293501352972106  1.0000
  O   O4        1.0  0.1551416323534634  0.3815814817319782  0.29129173158638116  1.0000
  O   O5        1.0  0.4353535543378575  0.878637412690803  0.8391322352744512  1.0000
  O   O6        1.0  0.05645650308311366  0.1423751879809234  0.0044742253300754445  1.0000
  O   O7        1.0  0.3130403686452535  0.5376910842287925  0.8621085787055296  1.0000
  O   O8        1.0  0.22254611337048869  0.7925240947519722  0.2860067647631768  1.0000
  O   O9        1.0  0.3728926602701211  0.34309426111042113  0.5574911511826823  1.0000
  O   O10       1.0  0.9040712628166955  0.6355492603182831  0.7061490837903464  1.0000
  O   O11       1.0  0.632841520190494  0.6730596699055427  0.4372001731479686  1.0000
  O   O12       1.0  0.21376439755630947  0.9426776278465258  0.5655601170829969  1.0000
  O   O13       1.0  0.5463717438311944  0.07440340370450635  0.14718749369505985  1.0000
  O   O14       1.0  0.6701804006285672  0.5261477959208628  0.11362712785787385  1.0000
data_image87
_chemical_formula_structural       V8O14
_chemical_formula_sum              "V8 O14"
_cell_length_a       5.550582121701734
_cell_length_b       6.786413640792483
_cell_length_c       6.98693040473207
_cell_angle_alpha    64.37373990390658
_cell_angle_beta     70.29505848782973
_cell_angle_gamma    75.17998095895898

_space_group_name_H-M_alt    "P 1"
_space_group_IT_number       1

loop_
  _space_group_symop_operation_xyz
  'x, y, z'

loop_
  _atom_site_type_symbol
  _atom_site_label
  _atom_site_symmetry_multiplicity
  _atom_site_fract_x
  _atom_site_fract_y
  _atom_site_fract_z
  _atom_site_occupancy
  V   V1        1.0  0.19064546336280908  0.08427898702022074  0.2822773271713977  1.0000
  V   V2        1.0  0.7208912402629146  0.3439673836611325  0.44465890418914733  1.0000
  V   V3        1.0  0.2577123899164887  0.6642064262762479  0.5701194381495484  1.0000
  V   V4        1.0  0.25712709655632954  0.6562663991399771  0.07324789550763597  1.0000
  V   V5        1.0  0.7420155023671093  0.3564392946929981  0.9217672497576476  1.0000
  V   V6        1.0  0.20795593444301302  0.11672758287064748  0.7552195168811631  1.0000
  V   V7        1.0  0.828622827883153  0.876581621382625  0.2684273824241159  1.0000
  V   V8        1.0  0.7680927140802973  0.8137410124403254  0.776532780793047  1.0000
  O   O1        1.0  0.8273764848951805  0.02198384951037655  0.44977301059969277  1.0000
  O   O2        1.0  0.8046017044434899  0.23578217891616687  0.7102563468203581  1.0000
  O   O3        1.0  0.9873853891817796  0.8697775425286998  0.9564406738770018  1.0000
  O   O4        1.0  0.06558520931248338  0.4332344333598154  0.23504356711527463  1.0000
  O   O5        1.0  0.4662121866864108  0.8906936812455094  0.9286803915613612  1.0000
  O   O6        1.0  0.08299678757450203  0.21741771128266382  0.9711123639502778  1.0000
  O   O7        1.0  0.3614511803037301  0.5829590216688398  0.8295263395127184  1.0000
  O   O8        1.0  0.1711137257524032  0.8406239261992665  0.22172808137564312  1.0000
  O   O9        1.0  0.3547142662139197  0.33099772326555743  0.539084102678307  1.0000
  O   O10       1.0  0.9316864452813158  0.5853466004130232  0.665796545099769  1.0000
  O   O11       1.0  0.5936921864448956  0.6697374162234349  0.40416306466851787  1.0000
  O   O12       1.0  0.24808018760077233  0.9584054063051762  0.5452128511505029  1.0000
  O   O13       1.0  0.5607992058474108  0.09175907155847471  0.12911815973758897  1.0000
  O   O14       1.0  0.5975401473532982  0.5289345771869162  0.11120853466321483  1.0000
data_image88
_chemical_formula_structural       V8O14
_chemical_formula_sum              "V8 O14"
_cell_length_a       5.550582121701734
_cell_length_b       6.786413640792483
_cell_length_c       6.98693040473207
_cell_angle_alpha    64.37373990390658
_cell_angle_beta     70.29505848782973
_cell_angle_gamma    75.17998095895898

_space_group_name_H-M_alt    "P 1"
_space_group_IT_number       1

loop_
  _space_group_symop_operation_xyz
  'x, y, z'

loop_
  _atom_site_type_symbol
  _atom_site_label
  _atom_site_symmetry_multiplicity
  _atom_site_fract_x
  _atom_site_fract_y
  _atom_site_fract_z
  _atom_site_occupancy
  V   V1        1.0  0.17161546979162554  0.1168762393454845  0.26992332674001335  1.0000
  V   V2        1.0  0.7307426947712379  0.3629470010571953  0.41595602885644634  1.0000
  V   V3        1.0  0.2771422819003323  0.637539886022593  0.5784185678253104  1.0000
  V   V4        1.0  0.30898824172401224  0.6177588849506478  0.07300932887484582  1.0000
  V   V5        1.0  0.6935703163986794  0.375152093281824  0.9106855285554415  1.0000
  V   V6        1.0  0.21190288465922472  0.09317917605531449  0.7522365981584094  1.0000
  V   V7        1.0  0.8249988768893133  0.9331202014321981  0.23563283564974002  1.0000
  V   V8        1.0  0.8015156952832682  0.9015120291102241  0.7511735014201775  1.0000
  O   O1        1.0  0.7645778946658561  0.040868125587928024  0.4419804691175969  1.0000
  O   O2        1.0  0.7603380391718766  0.2029587274839416  0.7285788063218712  1.0000
  O   O3        1.0  0.977990253437217  0.7876050574292593  0.9921443806761515  1.0000
  O   O4        1.0  0.0588150879640301  0.43176544119879573  0.27062073039601453  1.0000
  O   O5        1.0  0.4419671458770682  0.8134843053143846  0.8211755647874068  1.0000
  O   O6        1.0  0.020747948563309568  0.16166728273970132  0.012026111991454912  1.0000
  O   O7        1.0  0.3541555467850339  0.5162287813380837  0.8687862227370833  1.0000
  O   O8        1.0  0.17469653622816653  0.758933888977765  0.30993329026245875  1.0000
  O   O9        1.0  0.40197631128482664  0.3089847565263536  0.5970648386969499  1.0000
  O   O10       1.0  0.9364460030662667  0.6023550897385566  0.7122930421799225  1.0000
  O   O11       1.0  0.6589043555857417  0.6729383857737032  0.457616266045164  1.0000
  O   O12       1.0  0.2135287076480145  0.9269514745345774  0.5790850942320019  1.0000
  O   O13       1.0  0.5144085841028321  0.12778427838726053  0.11478500020378937  1.0000
  O   O14       1.0  0.6280233088940339  0.5053585423786737  0.11816917717791804  1.0000
data_image89
_chemical_formula_structural       V8O14
_chemical_formula_sum              "V8 O14"
_cell_length_a       5.550582121701734
_cell_length_b       6.786413640792483
_cell_length_c       6.98693040473207
_cell_angle_alpha    64.37373990390658
_cell_angle_beta     70.29505848782973
_cell_angle_gamma    75.17998095895898

_space_group_name_H-M_alt    "P 1"
_space_group_IT_number       1

loop_
  _space_group_symop_operation_xyz
  'x, y, z'

loop_
  _atom_site_type_symbol
  _atom_site_label
  _atom_site_symmetry_multiplicity
  _atom_site_fract_x
  _atom_site_fract_y
  _atom_site_fract_z
  _atom_site_occupancy
  V   V1        1.0  0.19904929104935107  0.07142137941072108  0.22375818690016408  1.0000
  V   V2        1.0  0.7168973305589017  0.3797632571789426  0.3614771255134682  1.0000
  V   V3        1.0  0.26233452103551036  0.6238876551565952  0.6317326305654376  1.0000
  V   V4        1.0  0.27865765328537984  0.6447309874501286  0.09574964079287016  1.0000
  V   V5        1.0  0.7427380467190922  0.32996059524897464  0.899296305599988  1.0000
  V   V6        1.0  0.2136837649266171  0.14427521806167323  0.712873846518121  1.0000
  V   V7        1.0  0.7935192057859256  0.8796005410460016  0.3020900978080254  1.0000
  V   V8        1.0  0.8211145111552719  0.9339408851216301  0.7628013548012526  1.0000
  O   O1        1.0  0.7034313087321682  0.05625592367119455  0.48310464175015316  1.0000
  O   O2        1.0  0.7995750421661231  0.26134185419406075  0.6622519749113082  1.0000
  O   O3        1.0  0.9278975093506386  0.761503928629209  0.07981542002337094  1.0000
  O   O4        1.0  0.11642221081636386  0.3848088284282999  0.20341204642525934  1.0000
  O   O5        1.0  0.41814778322040136  0.9284700262370879  0.8667531197395604  1.0000
  O   O6        1.0  0.07342360694270308  0.18696958174216388  0.976819036971825  1.0000
  O   O7        1.0  0.3732689741411588  0.5288459448515578  0.8884405859153143  1.0000
  O   O8        1.0  0.15116441153406684  0.7800237153647589  0.3060037639355006  1.0000
  O   O9        1.0  0.3793484253444495  0.3615812138883435  0.5353549258231087  1.0000
  O   O10       1.0  0.8897493084532244  0.6084676028627647  0.7889990776610603  1.0000
  O   O11       1.0  0.64695641548558  0.6509853395483844  0.4645588626845669  1.0000
  O   O12       1.0  0.21674094072653055  0.9747750238352941  0.5613232345724738  1.0000
  O   O13       1.0  0.58226865660548  0.052674205426898234  0.0830304398998177  1.0000
  O   O14       1.0  0.5981319794979091  0.4260034988135578  0.11902433852074248  1.0000
data_image90
_chemical_formula_structural       V8O14
_chemical_formula_sum              "V8 O14"
_cell_length_a       5.550582121701734
_cell_length_b       6.786413640792483
_cell_length_c       6.98693040473207
_cell_angle_alpha    64.37373990390658
_cell_angle_beta     70.29505848782973
_cell_angle_gamma    75.17998095895898

_space_group_name_H-M_alt    "P 1"
_space_group_IT_number       1

loop_
  _space_group_symop_operation_xyz
  'x, y, z'

loop_
  _atom_site_type_symbol
  _atom_site_label
  _atom_site_symmetry_multiplicity
  _atom_site_fract_x
  _atom_site_fract_y
  _atom_site_fract_z
  _atom_site_occupancy
  V   V1        1.0  0.22515083654618934  0.17286610872270128  0.17001439217877096  1.0000
  V   V2        1.0  0.7478518738568661  0.34011515334418563  0.4237348603691995  1.0000
  V   V3        1.0  0.2551226219304441  0.5800000980564733  0.5948367519250592  1.0000
  V   V4        1.0  0.2866874431673307  0.6502068894108816  0.08437239749133801  1.0000
  V   V5        1.0  0.7193661160735703  0.39120984918954094  0.9094526968137933  1.0000
  V   V6        1.0  0.15196137041425284  0.1097275895421706  0.7540374417308111  1.0000
  V   V7        1.0  0.8108566742590013  0.8652612383315319  0.2940318716091115  1.0000
  V   V8        1.0  0.8436715432858243  0.8670427537495842  0.7784295014103515  1.0000
  O   O1        1.0  0.7211736202766487  0.01127494116977571  0.4665145744105718  1.0000
  O   O2        1.0  0.8089480408879405  0.22504229376407442  0.6933802055075238  1.0000
  O   O3        1.0  0.9877237472996325  0.8226501454721458  0.9852419962085494  1.0000
  O   O4        1.0  0.09853799904464502  0.3642470309946907  0.29279332732790697  1.0000
  O   O5        1.0  0.45198301907132005  0.9524247664186148  0.9019422573522299  1.0000
  O   O6        1.0  0.010745391009809722  0.21047379667517666  0.9576794142419518  1.0000
  O   O7        1.0  0.31233111671823166  0.5071457218403242  0.878294256686259  1.0000
  O   O8        1.0  0.21596968259817542  0.7928180317400798  0.29939264578178487  1.0000
  O   O9        1.0  0.37473014711307123  0.3099543890301117  0.5839567156791641  1.0000
  O   O10       1.0  0.8931217961018104  0.6313464344049126  0.6364287006420927  1.0000
  O   O11       1.0  0.6049879921806228  0.6335067322759236  0.431980894259541  1.0000
  O   O12       1.0  0.17417008264141684  0.9504173340176827  0.5784647740364873  1.0000
  O   O13       1.0  0.5725569511898113  0.09002088621144214  0.16414289919285466  1.0000
  O   O14       1.0  0.6167876008687653  0.5618202780856748  0.08207097194593839  1.0000
data_image91
_chemical_formula_structural       V8O14
_chemical_formula_sum              "V8 O14"
_cell_length_a       5.550582121701734
_cell_length_b       6.786413640792483
_cell_length_c       6.98693040473207
_cell_angle_alpha    64.37373990390658
_cell_angle_beta     70.29505848782973
_cell_angle_gamma    75.17998095895898

_space_group_name_H-M_alt    "P 1"
_space_group_IT_number       1

loop_
  _space_group_symop_operation_xyz
  'x, y, z'

loop_
  _atom_site_type_symbol
  _atom_site_label
  _atom_site_symmetry_multiplicity
  _atom_site_fract_x
  _atom_site_fract_y
  _atom_site_fract_z
  _atom_site_occupancy
  V   V1        1.0  0.24997575324892798  0.14662235666235077  0.12695804752634804  1.0000
  V   V2        1.0  0.709719744689792  0.33008157160050094  0.39227337058511436  1.0000
  V   V3        1.0  0.23361874786565617  0.6398949414991153  0.6146679013972923  1.0000
  V   V4        1.0  0.2907147241150939  0.6279443830011926  0.10319439241912542  1.0000
  V   V5        1.0  0.7320427529157847  0.374484679166009  0.9061958148934466  1.0000
  V   V6        1.0  0.16276551550555413  0.08994020328571517  0.7230893744133602  1.0000
  V   V7        1.0  0.7703819571552988  0.8717406949137172  0.32592098974494277  1.0000
  V   V8        1.0  0.7795373111029961  0.90082265465313  0.8043288470659761  1.0000
  O   O1        1.0  0.8482366558141229  0.034495431560644815  0.45169471722515164  1.0000
  O   O2        1.0  0.8547918146674429  0.20442046824211216  0.6846774585071185  1.0000
  O   O3        1.0  0.006572295538006756  0.8657756689845367  0.008224090842926968  1.0000
  O   O4        1.0  0.07852588125640625  0.3994025211405961  0.2569755931880836  1.0000
  O   O5        1.0  0.440071366763315  0.9128048672918282  0.9491436201896372  1.0000
  O   O6        1.0  0.04540497145664054  0.2428111927597593  0.9319735642022107  1.0000
  O   O7        1.0  0.36955730761750605  0.490184492685707  0.9127590880345714  1.0000
  O   O8        1.0  0.17351144914169553  0.7622126646179808  0.3176602793290048  1.0000
  O   O9        1.0  0.3672429448369596  0.32856027271240695  0.5304544551333535  1.0000
  O   O10       1.0  0.8654798736410849  0.6533057473225463  0.672385489081992  1.0000
  O   O11       1.0  0.6172355022239693  0.6211369864749771  0.4594230065800972  1.0000
  O   O12       1.0  0.2775513144067641  0.9079050699827416  0.5478564940522649  1.0000
  O   O13       1.0  0.6145051135311822  0.09371370374447657  0.1386563596451033  1.0000
  O   O14       1.0  0.6410117074839032  0.5284896930483525  0.1348339584842479  1.0000
data_image92
_chemical_formula_structural       V8O14
_chemical_formula_sum              "V8 O14"
_cell_length_a       5.550582121701734
_cell_length_b       6.786413640792483
_cell_length_c       6.98693040473207
_cell_angle_alpha    64.37373990390658
_cell_angle_beta     70.29505848782973
_cell_angle_gamma    75.17998095895898

_space_group_name_H-M_alt    "P 1"
_space_group_IT_number       1

loop_
  _space_group_symop_operation_xyz
  'x, y, z'

loop_
  _atom_site_type_symbol
  _atom_site_label
  _atom_site_symmetry_multiplicity
  _atom_site_fract_x
  _atom_site_fract_y
  _atom_site_fract_z
  _atom_site_occupancy
  V   V1        1.0  0.27651422106818196  0.08253575938207706  0.14878865185065218  1.0000
  V   V2        1.0  0.7177070111830058  0.3424345464842565  0.4167656156037054  1.0000
  V   V3        1.0  0.2902477162279671  0.6429685682902946  0.594283798819877  1.0000
  V   V4        1.0  0.24043864744962742  0.5717545367140919  0.15908250261611107  1.0000
  V   V5        1.0  0.7517247393037724  0.4138774693952901  0.8856382621572365  1.0000
  V   V6        1.0  0.23735912597684392  0.08525567112569524  0.7316551618529022  1.0000
  V   V7        1.0  0.7381642477722418  0.9302114193455704  0.29808431043301015  1.0000
  V   V8        1.0  0.7612112453574457  0.9101524317109344  0.803031169705436  1.0000
  O   O1        1.0  0.6652150475914286  0.026683515518986796  0.5513270337755313  1.0000
  O   O2        1.0  0.8577857199540937  0.28911017509835213  0.6290085307959011  1.0000
  O   O3        1.0  0.007841888633645988  0.8170721235532726  0.9611915826158471  1.0000
  O   O4        1.0  0.07931817945751743  0.3678002234954827  0.21953325256095077  1.0000
  O   O5        1.0  0.4392049377066656  0.8584073093091957  0.9862485531086975  1.0000
  O   O6        1.0  0.008713024510895798  0.16895941349269342  0.016244431359180776  1.0000
  O   O7        1.0  0.4175350692391996  0.5258477286660719  0.8671457799232669  1.0000
  O   O8        1.0  0.0737289925245607  0.7920465797112851  0.32286347334800886  1.0000
  O   O9        1.0  0.33111906162273064  0.3764509946657137  0.4916932206007912  1.0000
  O   O10       1.0  0.8705341180998013  0.6629361090642408  0.7621714697016946  1.0000
  O   O11       1.0  0.6680134790688632  0.6390317180210033  0.3924952971493641  1.0000
  O   O12       1.0  0.2892651496313382  0.9734581760499814  0.4537204555372872  1.0000
  O   O13       1.0  0.6102768260829323  0.12547565697040558  0.06299909490715573  1.0000
  O   O14       1.0  0.6193650037981503  0.42874500795804193  0.15024950137363147  1.0000
data_image93
_chemical_formula_structural       V8O14
_chemical_formula_sum              "V8 O14"
_cell_length_a       5.550582121701734
_cell_length_b       6.786413640792483
_cell_length_c       6.98693040473207
_cell_angle_alpha    64.37373990390658
_cell_angle_beta     70.29505848782973
_cell_angle_gamma    75.17998095895898

_space_group_name_H-M_alt    "P 1"
_space_group_IT_number       1

loop_
  _space_group_symop_operation_xyz
  'x, y, z'

loop_
  _atom_site_type_symbol
  _atom_site_label
  _atom_site_symmetry_multiplicity
  _atom_site_fract_x
  _atom_site_fract_y
  _atom_site_fract_z
  _atom_site_occupancy
  V   V1        1.0  0.2352891785368672  0.05789569427430174  0.17535419316665607  1.0000
  V   V2        1.0  0.732358578055952  0.35473310932105956  0.44972058245635155  1.0000
  V   V3        1.0  0.1938195464878959  0.6435524528832663  0.6012082484083326  1.0000
  V   V4        1.0  0.26573261913598545  0.5868011192260137  0.10039026683474823  1.0000
  V   V5        1.0  0.7555660239857372  0.40403360202528577  0.8779720077248916  1.0000
  V   V6        1.0  0.3146672586275066  0.07507799445667139  0.6731778161229963  1.0000
  V   V7        1.0  0.7608453166504469  0.9259305860061068  0.30186739983808886  1.0000
  V   V8        1.0  0.7475588117059732  0.9573750121881638  0.823581255034158  1.0000
  O   O1        1.0  0.6949488479752958  0.06306106277916079  0.4977534093333419  1.0000
  O   O2        1.0  0.8991794308545451  0.2435944843051672  0.7088073291291228  1.0000
  O   O3        1.0  0.9977290752464506  0.7708976625636141  0.02361993299530285  1.0000
  O   O4        1.0  0.13254505195797117  0.32090779813740367  0.23632710514614264  1.0000
  O   O5        1.0  0.3956628742060999  0.9128411481902721  0.931863993028543  1.0000
  O   O6        1.0  0.9926008484401392  0.1793565999863214  0.04773283840817268  1.0000
  O   O7        1.0  0.42005750520502594  0.535616018265103  0.8107839833974737  1.0000
  O   O8        1.0  0.12006775183969613  0.6762860271728409  0.34283003086489006  1.0000
  O   O9        1.0  0.37486346064939513  0.36042892436138363  0.6085774535168267  1.0000
  O   O10       1.0  0.8534293493362359  0.7000092680066131  0.740393949255346  1.0000
  O   O11       1.0  0.599131148652413  0.6724051668765666  0.35446697662201615  1.0000
  O   O12       1.0  0.287943617754068  0.9529789946473047  0.48055725115277476  1.0000
  O   O13       1.0  0.5890815903390616  0.10995001803436226  0.0442047172087377  1.0000
  O   O14       1.0  0.6039932665097042  0.46810176229974726  0.15006367176284593  1.0000
data_image94
_chemical_formula_structural       V8O14
_chemical_formula_sum              "V8 O14"
_cell_length_a       5.550582121701734
_cell_length_b       6.786413640792483
_cell_length_c       6.98693040473207
_cell_angle_alpha    64.37373990390658
_cell_angle_beta     70.29505848782973
_cell_angle_gamma    75.17998095895898

_space_group_name_H-M_alt    "P 1"
_space_group_IT_number       1

loop_
  _space_group_symop_operation_xyz
  'x, y, z'

loop_
  _atom_site_type_symbol
  _atom_site_label
  _atom_site_symmetry_multiplicity
  _atom_site_fract_x
  _atom_site_fract_y
  _atom_site_fract_z
  _atom_site_occupancy
  V   V1        1.0  0.2627519349264853  0.07880331288392482  0.18816732274763864  1.0000
  V   V2        1.0  0.7957534844292965  0.35962015844726547  0.3801194512832974  1.0000
  V   V3        1.0  0.24329954713418164  0.6104061504420596  0.60536968675044  1.0000
  V   V4        1.0  0.24796137247738564  0.6624681387194545  0.08337369357977145  1.0000
  V   V5        1.0  0.710816932132646  0.4050406927265505  0.9368875117988151  1.0000
  V   V6        1.0  0.23485181178414932  0.16326840996896216  0.6078301092144586  1.0000
  V   V7        1.0  0.7299457115072138  0.8584420059588898  0.2923871823804013  1.0000
  V   V8        1.0  0.751006272055415  0.9140294411752714  0.7513612249925378  1.0000
  O   O1        1.0  0.7205244304386784  0.0407697611330168  0.43331381473377295  1.0000
  O   O2        1.0  0.9275203080826184  0.21008339156666356  0.7334989159649131  1.0000
  O   O3        1.0  0.8834251551924049  0.7684449455363721  0.067248579199511  1.0000
  O   O4        1.0  0.1808441929956712  0.3262250511184657  0.33905733128689325  1.0000
  O   O5        1.0  0.3899615338785145  0.9251191998333655  0.8867768525862092  1.0000
  O   O6        1.0  0.9687297326146868  0.22199937354711063  0.1036927680951261  1.0000
  O   O7        1.0  0.31850840301357863  0.4848360021912355  0.9174533680277043  1.0000
  O   O8        1.0  0.22420977567714884  0.7308880650706008  0.31477868414563426  1.0000
  O   O9        1.0  0.4299483517271571  0.3273311545132507  0.6392718301635913  1.0000
  O   O10       1.0  0.9063017034504154  0.6287189962006802  0.7868703522183103  1.0000
  O   O11       1.0  0.6676983760952475  0.594445367451307  0.5262230322135504  1.0000
  O   O12       1.0  0.27793465360698205  0.9058488441192918  0.5069938016255707  1.0000
  O   O13       1.0  0.5739681118990652  0.12708626551470464  0.0811450931834905  1.0000
  O   O14       1.0  0.5867907111058638  0.5183643381765421  0.15452352889440157  1.0000
data_image95
_chemical_formula_structural       V8O14
_chemical_formula_sum              "V8 O14"
_cell_length_a       5.550582121701734
_cell_length_b       6.786413640792483
_cell_length_c       6.98693040473207
_cell_angle_alpha    64.37373990390658
_cell_angle_beta     70.29505848782973
_cell_angle_gamma    75.17998095895898

_space_group_name_H-M_alt    "P 1"
_space_group_IT_number       1

loop_
  _space_group_symop_operation_xyz
  'x, y, z'

loop_
  _atom_site_type_symbol
  _atom_site_label
  _atom_site_symmetry_multiplicity
  _atom_site_fract_x
  _atom_site_fract_y
  _atom_site_fract_z
  _atom_site_occupancy
  V   V1        1.0  0.22211095799181588  0.14492091209256486  0.2108107354822334  1.0000
  V   V2        1.0  0.6909379018766659  0.3704642600289899  0.40446197886947954  1.0000
  V   V3        1.0  0.2677265078837113  0.6302337777719994  0.6060215067368986  1.0000
  V   V4        1.0  0.26332979945656804  0.6099436496962215  0.10026665877588296  1.0000
  V   V5        1.0  0.7358351040204102  0.36419549060406803  0.8722411813128483  1.0000
  V   V6        1.0  0.16236264693842087  0.11138372166205919  0.7223997754943864  1.0000
  V   V7        1.0  0.8518792705659812  0.9147238637669617  0.2578007598758061  1.0000
  V   V8        1.0  0.7739775435079125  0.8967208125023711  0.8309866800391776  1.0000
  O   O1        1.0  0.7989163868238164  0.0877412514829429  0.4215044024661018  1.0000
  O   O2        1.0  0.803540800384962  0.23924630120091203  0.6733707311432772  1.0000
  O   O3        1.0  0.0035391754422691157  0.7943756337119251  0.996706470450856  1.0000
  O   O4        1.0  0.0338281575645126  0.4081175197267858  0.23969852249562906  1.0000
  O   O5        1.0  0.4204473182230119  0.8445871915429229  0.8939549055942068  1.0000
  O   O6        1.0  0.07224449577586815  0.16957140525183878  0.009641444114033403  1.0000
  O   O7        1.0  0.3804521300685389  0.49466586443332183  0.8840618949713226  1.0000
  O   O8        1.0  0.2011676612626737  0.7325759147939715  0.32243715773795123  1.0000
  O   O9        1.0  0.3911662438945123  0.2998026556142086  0.5960305845419437  1.0000
  O   O10       1.0  0.8787355406654682  0.6724653776985438  0.7567120444582964  1.0000
  O   O11       1.0  0.6405689452108695  0.6380497879242235  0.4548426021838895  1.0000
  O   O12       1.0  0.2793098169026053  0.9219439651194113  0.5424731993051373  1.0000
  O   O13       1.0  0.5931762821927781  0.07183842333174392  0.055633508523855325  1.0000
  O   O14       1.0  0.5890706990094401  0.46476442990824335  0.13320322155040534  1.0000
data_image96
_chemical_formula_structural       V8O14
_chemical_formula_sum              "V8 O14"
_cell_length_a       5.550582121701734
_cell_length_b       6.786413640792483
_cell_length_c       6.98693040473207
_cell_angle_alpha    64.37373990390658
_cell_angle_beta     70.29505848782973
_cell_angle_gamma    75.17998095895898

_space_group_name_H-M_alt    "P 1"
_space_group_IT_number       1

loop_
  _space_group_symop_operation_xyz
  'x, y, z'

loop_
  _atom_site_type_symbol
  _atom_site_label
  _atom_site_symmetry_multiplicity
  _atom_site_fract_x
  _atom_site_fract_y
  _atom_site_fract_z
  _atom_site_occupancy
  V   V1        1.0  0.24219031228432428  0.11110797441001155  0.21295164418885812  1.0000
  V   V2        1.0  0.693705918086567  0.35851270548827685  0.4137184588055004  1.0000
  V   V3        1.0  0.2826026899393032  0.6701254354958375  0.5993563591498208  1.0000
  V   V4        1.0  0.22177155506582313  0.6271673602524594  0.1095426781656007  1.0000
  V   V5        1.0  0.696614487787742  0.3735855310223844  0.9295911255384371  1.0000
  V   V6        1.0  0.2093034521631544  0.07704089042804192  0.7791251480758237  1.0000
  V   V7        1.0  0.8241277776171801  0.887450319586146  0.2386732129317695  1.0000
  V   V8        1.0  0.7851654170232685  0.903136106594765  0.7525405510984232  1.0000
  O   O1        1.0  0.7683619872379195  0.07613396722084018  0.41963067494887935  1.0000
  O   O2        1.0  0.8524627831483302  0.19729376533911105  0.6655087798900097  1.0000
  O   O3        1.0  0.9773434488171563  0.8083187139380427  0.9630428113707218  1.0000
  O   O4        1.0  0.07776861525516504  0.38581638828918585  0.2977674980421588  1.0000
  O   O5        1.0  0.4688432742650044  0.8406011672861277  0.9191088157083243  1.0000
  O   O6        1.0  0.03206399917883162  0.17177611826804612  0.026037644265240655  1.0000
  O   O7        1.0  0.391823567107232  0.5081138578521243  0.8435465615132459  1.0000
  O   O8        1.0  0.18035718335521694  0.790719325578234  0.30702260294017936  1.0000
  O   O9        1.0  0.32899047774961304  0.36973303916298517  0.5661404073747456  1.0000
  O   O10       1.0  0.8899678486495033  0.6519011752658922  0.7187655619798718  1.0000
  O   O11       1.0  0.6788849743998561  0.6260740043797471  0.4082094283735286  1.0000
  O   O12       1.0  0.2419508952257456  0.9727458101702721  0.4857134820304105  1.0000
  O   O13       1.0  0.6147997633951106  0.09288353644109171  0.0995405788171711  1.0000
  O   O14       1.0  0.6258179334884449  0.4607366017650872  0.16381701839815277  1.0000
data_image97
_chemical_formula_structural       V8O14
_chemical_formula_sum              "V8 O14"
_cell_length_a       5.550582121701734
_cell_length_b       6.786413640792483
_cell_length_c       6.98693040473207
_cell_angle_alpha    64.37373990390658
_cell_angle_beta     70.29505848782973
_cell_angle_gamma    75.17998095895898

_space_group_name_H-M_alt    "P 1"
_space_group_IT_number       1

loop_
  _space_group_symop_operation_xyz
  'x, y, z'

loop_
  _atom_site_type_symbol
  _atom_site_label
  _atom_site_symmetry_multiplicity
  _atom_site_fract_x
  _atom_site_fract_y
  _atom_site_fract_z
  _atom_site_occupancy
  V   V1        1.0  0.15975999173258906  0.12253937042696947  0.2570091716616071  1.0000
  V   V2        1.0  0.7579618313524769  0.36620458968797104  0.3871659780014297  1.0000
  V   V3        1.0  0.3469323930264389  0.6300827341981936  0.5502973363342125  1.0000
  V   V4        1.0  0.28073141737100654  0.6306447255730548  0.09649124488022576  1.0000
  V   V5        1.0  0.70131740379124  0.3522616417876606  0.923938595197634  1.0000
  V   V6        1.0  0.15799589507231232  0.09379444021205963  0.7658764281124302  1.0000
  V   V7        1.0  0.800391939390298  0.933267742445206  0.22876520768035488  1.0000
  V   V8        1.0  0.8003392903064679  0.8906648786218325  0.7427607660878806  1.0000
  O   O1        1.0  0.7630576507767513  0.0729193247400562  0.4386944076951072  1.0000
  O   O2        1.0  0.8346060119245557  0.2486177128400908  0.7061966245596256  1.0000
  O   O3        1.0  0.9185533493550645  0.8479071513430072  0.9894341788710806  1.0000
  O   O4        1.0  0.1078363316329452  0.4076003352741534  0.23742383979283152  1.0000
  O   O5        1.0  0.4412736714807315  0.9099338589390079  0.8596493583742614  1.0000
  O   O6        1.0  0.042351472139998216  0.1732715736143694  0.007824625103808009  1.0000
  O   O7        1.0  0.38311426177735025  0.5059458799397369  0.8530500142225105  1.0000
  O   O8        1.0  0.17680337769824148  0.7708889531082168  0.3190414105599676  1.0000
  O   O9        1.0  0.40502536571378134  0.3047157141841261  0.5876922923142828  1.0000
  O   O10       1.0  0.8638523634993535  0.6302956990675426  0.7711357042795105  1.0000
  O   O11       1.0  0.7307198162009015  0.5961496905579716  0.44215721958892823  1.0000
  O   O12       1.0  0.2034902340083725  0.8747719275900472  0.6211619301083915  1.0000
  O   O13       1.0  0.5287321779041875  0.11628396308354158  0.13140972243080432  1.0000
  O   O14       1.0  0.5780096462785276  0.4498067064346328  0.1852415922921062  1.0000
data_image98
_chemical_formula_structural       V8O14
_chemical_formula_sum              "V8 O14"
_cell_length_a       5.550582121701734
_cell_length_b       6.786413640792483
_cell_length_c       6.98693040473207
_cell_angle_alpha    64.37373990390658
_cell_angle_beta     70.29505848782973
_cell_angle_gamma    75.17998095895898

_space_group_name_H-M_alt    "P 1"
_space_group_IT_number       1

loop_
  _space_group_symop_operation_xyz
  'x, y, z'

loop_
  _atom_site_type_symbol
  _atom_site_label
  _atom_site_symmetry_multiplicity
  _atom_site_fract_x
  _atom_site_fract_y
  _atom_site_fract_z
  _atom_site_occupancy
  V   V1        1.0  0.2177640669345277  0.06209086368261677  0.2566184726734136  1.0000
  V   V2        1.0  0.7600948205833292  0.382914788525187  0.3767289810470608  1.0000
  V   V3        1.0  0.23123561100229403  0.6386200406635427  0.632187990586639  1.0000
  V   V4        1.0  0.2666127963087857  0.5941723478149654  0.09777537551286387  1.0000
  V   V5        1.0  0.7487042747085871  0.3484877881919012  0.9008089353466534  1.0000
  V   V6        1.0  0.23072995020972994  0.13445514583378354  0.7364098592179835  1.0000
  V   V7        1.0  0.7971460244899574  0.8788374250780828  0.277599513552406  1.0000
  V   V8        1.0  0.7651720769898549  0.9342126830396097  0.7561686750634435  1.0000
  O   O1        1.0  0.7299856822642545  0.08372657788325953  0.42442442022213034  1.0000
  O   O2        1.0  0.8790934285053597  0.2420335031332117  0.6684821145072153  1.0000
  O   O3        1.0  0.018138829511559207  0.8233867450983584  0.9415810826934945  1.0000
  O   O4        1.0  0.10976711762903994  0.2910272774329517  0.3305795993222912  1.0000
  O   O5        1.0  0.4404167557015774  0.8648746030148439  0.8958751306345464  1.0000
  O   O6        1.0  0.0325449930877357  0.23808325624349833  0.0035240777206631186  1.0000
  O   O7        1.0  0.3992527288616011  0.4742211054214488  0.8356892410712085  1.0000
  O   O8        1.0  0.1618658719894262  0.7478800588834666  0.3116120807197855  1.0000
  O   O9        1.0  0.4152551281987032  0.34247810485647656  0.5930119117078623  1.0000
  O   O10       1.0  0.8352038766127929  0.6900463624017591  0.6901023989533185  1.0000
  O   O11       1.0  0.5606141803158772  0.7079812079410158  0.38909067559210153  1.0000
  O   O12       1.0  0.19089128809973083  0.9348306068379394  0.5670291319534505  1.0000
  O   O13       1.0  0.5513019782430911  0.09344426256792611  0.1053475883585952  1.0000
  O   O14       1.0  0.6186871124222125  0.5124732190128877  0.13531078933768637  1.0000
data_image99
_chemical_formula_structural       V8O14
_chemical_formula_sum              "V8 O14"
_cell_length_a       5.550582121701734
_cell_length_b       6.786413640792483
_cell_length_c       6.98693040473207
_cell_angle_alpha    64.37373990390658
_cell_angle_beta     70.29505848782973
_cell_angle_gamma    75.17998095895898

_space_group_name_H-M_alt    "P 1"
_space_group_IT_number       1

loop_
  _space_group_symop_operation_xyz
  'x, y, z'

loop_
  _atom_site_type_symbol
  _atom_site_label
  _atom_site_symmetry_multiplicity
  _atom_site_fract_x
  _atom_site_fract_y
  _atom_site_fract_z
  _atom_site_occupancy
  V   V1        1.0  0.18777006473451888  0.11370996667051961  0.24678558077259577  1.0000
  V   V2        1.0  0.7072668821864421  0.3531920541343671  0.4386546032779873  1.0000
  V   V3        1.0  0.24213086037047143  0.6117828020623568  0.5944022078549893  1.0000
  V   V4        1.0  0.30681966319271936  0.6557433937278883  0.10126022990836876  1.0000
  V   V5        1.0  0.7259519683131542  0.3798758690047338  0.90494206683307  1.0000
  V   V6        1.0  0.17745611635088013  0.05665543908080661  0.7336594487706112  1.0000
  V   V7        1.0  0.8134704563278498  0.9114983101992797  0.24548908567371275  1.0000
  V   V8        1.0  0.8032323763024578  0.8929939288036084  0.7501943038746708  1.0000
  O   O1        1.0  0.8090988602751112  0.05705081885746683  0.4238760878533574  1.0000
  O   O2        1.0  0.8443714081181349  0.20461817709958047  0.7161770199266699  1.0000
  O   O3        1.0  0.004058387802647889  0.8076372590012916  0.9618555090955255  1.0000
  O   O4        1.0  0.10588929906974508  0.3745860985003262  0.2660955868878559  1.0000
  O   O5        1.0  0.4633029845504664  0.8823441217441705  0.9031196768754728  1.0000
  O   O6        1.0  0.057367347036477695  0.16841504410093305  0.01941120039909983  1.0000
  O   O7        1.0  0.37809163540518326  0.49523821201541063  0.9371321169831348  1.0000
  O   O8        1.0  0.19909982077535154  0.8052448619337857  0.256474556570776  1.0000
  O   O9        1.0  0.32872733536152915  0.3439820359319286  0.5515116824396059  1.0000
  O   O10       1.0  0.8636533404878809  0.6376298046643775  0.7010568629828138  1.0000
  O   O11       1.0  0.5940427121972436  0.6670382987524526  0.4340820625022506  1.0000
  O   O12       1.0  0.2921880205411834  0.9277770078946085  0.5322428937904005  1.0000
  O   O13       1.0  0.5365011987381505  0.13969060780947834  0.14002194604698587  1.0000
  O   O14       1.0  0.6438200285092621  0.5347186102081598  0.10632411597580815  1.0000
data_image100
_chemical_formula_structural       V8O14
_chemical_formula_sum              "V8 O14"
_cell_length_a       5.550582121701734
_cell_length_b       6.786413640792483
_cell_length_c       6.98693040473207
_cell_angle_alpha    64.37373990390658
_cell_angle_beta     70.29505848782973
_cell_angle_gamma    75.17998095895898

_space_group_name_H-M_alt    "P 1"
_space_group_IT_number       1

loop_
  _space_group_symop_operation_xyz
  'x, y, z'

loop_
  _atom_site_type_symbol
  _atom_site_label
  _atom_site_symmetry_multiplicity
  _atom_site_fract_x
  _atom_site_fract_y
  _atom_site_fract_z
  _atom_site_occupancy
  V   V1        1.0  0.2123539267984559  0.04773171358352208  0.2560187431085255  1.0000
  V   V2        1.0  0.7360978615326043  0.39237907123303545  0.4047033221092676  1.0000
  V   V3        1.0  0.2518224305302983  0.6695120131658752  0.5768468746246848  1.0000
  V   V4        1.0  0.32515651188205547  0.5992955126177142  0.11839619004272706  1.0000
  V   V5        1.0  0.7012166215887984  0.35194501411422946  0.8893506537723499  1.0000
  V   V6        1.0  0.19950236324787168  0.11145218236232152  0.7467137559950184  1.0000
  V   V7        1.0  0.795548645566887  0.9021452013830271  0.2406087090622167  1.0000
  V   V8        1.0  0.8225499526467416  0.8826286539662854  0.7628027597246727  1.0000
  O   O1        1.0  0.7481899728292157  0.07236964706393595  0.43311556601109547  1.0000
  O   O2        1.0  0.7549842314257392  0.21393850631682362  0.7167518756630481  1.0000
  O   O3        1.0  0.01958437320909323  0.8226509745313088  0.9977309993434295  1.0000
  O   O4        1.0  0.1070996482839479  0.3801465840371444  0.24352323060593176  1.0000
  O   O5        1.0  0.4649145785560342  0.9426043714302557  0.8698891314318813  1.0000
  O   O6        1.0  0.007127287444189313  0.18349663743645742  0.006548769371555241  1.0000
  O   O7        1.0  0.3921477152245096  0.5309757770532101  0.871506832282609  1.0000
  O   O8        1.0  0.14710040966378068  0.7751274255637218  0.2992070798494625  1.0000
  O   O9        1.0  0.33256913542919947  0.41063853003308237  0.5125066753410089  1.0000
  O   O10       1.0  0.9141253420415134  0.5713797487759419  0.7515417312678354  1.0000
  O   O11       1.0  0.6103348111817033  0.6559111469724015  0.4504184365128583  1.0000
  O   O12       1.0  0.20218691311628295  0.9558568835858222  0.5684842387878517  1.0000
  O   O13       1.0  0.5161338288842471  0.09687518336374375  0.15289305666828176  1.0000
  O   O14       1.0  0.6543464067955036  0.49708562209552243  0.1377877431926985  1.0000
data_image101
_chemical_formula_structural       V8O14
_chemical_formula_sum              "V8 O14"
_cell_length_a       5.550582121701734
_cell_length_b       6.786413640792483
_cell_length_c       6.98693040473207
_cell_angle_alpha    64.37373990390658
_cell_angle_beta     70.29505848782973
_cell_angle_gamma    75.17998095895898

_space_group_name_H-M_alt    "P 1"
_space_group_IT_number       1

loop_
  _space_group_symop_operation_xyz
  'x, y, z'

loop_
  _atom_site_type_symbol
  _atom_site_label
  _atom_site_symmetry_multiplicity
  _atom_site_fract_x
  _atom_site_fract_y
  _atom_site_fract_z
  _atom_site_occupancy
  V   V1        1.0  0.20754493409120275  0.15584456054973667  0.20029706021133198  1.0000
  V   V2        1.0  0.7238495773521015  0.3252864980281555  0.43068201118377736  1.0000
  V   V3        1.0  0.3171747077674729  0.6378003249695102  0.572470044508958  1.0000
  V   V4        1.0  0.3013753826969782  0.6135724012761076  0.15518645310606813  1.0000
  V   V5        1.0  0.7190050749552975  0.36504666736977176  0.9100478731823932  1.0000
  V   V6        1.0  0.18372687405421378  0.07540251096293697  0.7793177541340915  1.0000
  V   V7        1.0  0.8146541566135749  0.9123046028429551  0.2004500174359787  1.0000
  V   V8        1.0  0.7972069811997834  0.9544369902120138  0.7410373636658428  1.0000
  O   O1        1.0  0.6731975209281239  0.061312418308876626  0.45092170283504096  1.0000
  O   O2        1.0  0.851946546136602  0.2284119263440268  0.7069191175532223  1.0000
  O   O3        1.0  0.9640566120621513  0.8007964395427135  0.9841294070024509  1.0000
  O   O4        1.0  0.048601772674055056  0.44655336802206164  0.25487203944063974  1.0000
  O   O5        1.0  0.47101929592161607  0.8494177441090152  0.8510562742918062  1.0000
  O   O6        1.0  0.022050176920849263  0.1999893608757429  0.9999863945584256  1.0000
  O   O7        1.0  0.3877029875648181  0.4705163919452843  0.9125262340199564  1.0000
  O   O8        1.0  0.1302700801965002  0.7896567612214085  0.304841126332882  1.0000
  O   O9        1.0  0.4055569333076981  0.27959953547871147  0.6266018074067794  1.0000
  O   O10       1.0  0.9214200176695295  0.6330907639601393  0.7581030993755358  1.0000
  O   O11       1.0  0.6528714999855882  0.6349893492386883  0.3658318473553603  1.0000
  O   O12       1.0  0.159791767287046  0.9883270781054887  0.5470583355643734  1.0000
  O   O13       1.0  0.5518166444665238  0.0727705572383344  0.07261223470242913  1.0000
  O   O14       1.0  0.5667239048694269  0.39336813215057675  0.20849112959473562  1.0000
data_image102
_chemical_formula_structural       V8O14
_chemical_formula_sum              "V8 O14"
_cell_length_a       5.550582121701734
_cell_length_b       6.786413640792483
_cell_length_c       6.98693040473207
_cell_angle_alpha    64.37373990390658
_cell_angle_beta     70.29505848782973
_cell_angle_gamma    75.17998095895898

_space_group_name_H-M_alt    "P 1"
_space_group_IT_number       1

loop_
  _space_group_symop_operation_xyz
  'x, y, z'

loop_
  _atom_site_type_symbol
  _atom_site_label
  _atom_site_symmetry_multiplicity
  _atom_site_fract_x
  _atom_site_fract_y
  _atom_site_fract_z
  _atom_site_occupancy
  V   V1        1.0  0.2590789014777966  0.07716922940249957  0.1823130777219512  1.0000
  V   V2        1.0  0.6929110037713185  0.37849642321939003  0.37063373045224757  1.0000
  V   V3        1.0  0.2664602387588072  0.6862270436099639  0.5857210040535827  1.0000
  V   V4        1.0  0.2529508348950248  0.6024453744235001  0.09408100346344325  1.0000
  V   V5        1.0  0.7579102824298312  0.3609768779293599  0.8894286381215037  1.0000
  V   V6        1.0  0.22006095290660738  0.11642192467759196  0.7097440571696148  1.0000
  V   V7        1.0  0.8135701859041159  0.9108501205573326  0.293764204807448  1.0000
  V   V8        1.0  0.7455781782865369  0.8831280023794796  0.8694744290500084  1.0000
  O   O1        1.0  0.7397740719986612  0.07922392040873043  0.4860105659772072  1.0000
  O   O2        1.0  0.8662689051280111  0.1911346978475485  0.6818198374461885  1.0000
  O   O3        1.0  0.980590196086971  0.7986437160147766  0.03489480291457214  1.0000
  O   O4        1.0  0.0540355549246938  0.39753780360274854  0.2341622914951573  1.0000
  O   O5        1.0  0.41583535448213466  0.8695080767462249  0.921940946887178  1.0000
  O   O6        1.0  0.04432145926964815  0.15594643837229855  0.007360565789670416  1.0000
  O   O7        1.0  0.4610790505910978  0.5396997861231982  0.7686491333301766  1.0000
  O   O8        1.0  0.07196589648041797  0.7459844043048042  0.3905014621501021  1.0000
  O   O9        1.0  0.3295298629894202  0.35770151608471273  0.6122603043639064  1.0000
  O   O10       1.0  0.8961851378768906  0.6662152275121501  0.7724901257911927  1.0000
  O   O11       1.0  0.6240027104513016  0.6423723600072387  0.38267953224166157  1.0000
  O   O12       1.0  0.30906030298300596  0.9529354033062489  0.48951212184918264  1.0000
  O   O13       1.0  0.5898425616888693  0.07523454419415002  0.10724683017615132  1.0000
  O   O14       1.0  0.6013625900099093  0.45745450284925343  0.1355503165186717  1.0000
data_image103
_chemical_formula_structural       V8O14
_chemical_formula_sum              "V8 O14"
_cell_length_a       5.550582121701734
_cell_length_b       6.786413640792483
_cell_length_c       6.98693040473207
_cell_angle_alpha    64.37373990390658
_cell_angle_beta     70.29505848782973
_cell_angle_gamma    75.17998095895898

_space_group_name_H-M_alt    "P 1"
_space_group_IT_number       1

loop_
  _space_group_symop_operation_xyz
  'x, y, z'

loop_
  _atom_site_type_symbol
  _atom_site_label
  _atom_site_symmetry_multiplicity
  _atom_site_fract_x
  _atom_site_fract_y
  _atom_site_fract_z
  _atom_site_occupancy
  V   V1        1.0  0.19365644337704577  0.10141923730468724  0.17858722528637816  1.0000
  V   V2        1.0  0.7838300366562789  0.3253531559464754  0.4362339432619248  1.0000
  V   V3        1.0  0.2387094396539338  0.5783225029384247  0.6238220792332275  1.0000
  V   V4        1.0  0.2931657764525494  0.6505246736743524  0.11781418872574216  1.0000
  V   V5        1.0  0.7025230548428162  0.42483341842682615  0.9281501427423674  1.0000
  V   V6        1.0  0.21357128894273447  0.07768063819175958  0.684214137603414  1.0000
  V   V7        1.0  0.7584140269065492  0.9111662523409714  0.26806290895418583  1.0000
  V   V8        1.0  0.7664682407000394  0.9483161574298835  0.7515902971246371  1.0000
  O   O1        1.0  0.8244125259003018  0.052128216178453465  0.445007896816163  1.0000
  O   O2        1.0  0.8627677397306484  0.19577088673767148  0.740142413479245  1.0000
  O   O3        1.0  0.01045013622399904  0.7780789627524871  0.9655314753384296  1.0000
  O   O4        1.0  0.10780428859834378  0.38866472070839053  0.2575882985699746  1.0000
  O   O5        1.0  0.39823756774016567  0.9053218002422873  0.9196851018333608  1.0000
  O   O6        1.0  0.05761351535526552  0.19048663057145632  0.9657458356498307  1.0000
  O   O7        1.0  0.3959065327786086  0.5113304216729602  0.8969567073437872  1.0000
  O   O8        1.0  0.10034089325873276  0.7585428162899472  0.33628440798207476  1.0000
  O   O9        1.0  0.36524800320576484  0.34542854917234417  0.536685648496966  1.0000
  O   O10       1.0  0.8950516349100645  0.6358847164691921  0.7508046651461244  1.0000
  O   O11       1.0  0.6955911687948488  0.5895072190560576  0.4710006388801605  1.0000
  O   O12       1.0  0.2894909243237216  0.9579231616852877  0.5109559700733799  1.0000
  O   O13       1.0  0.5671056358778106  0.1619991282301093  0.04903036757129977  1.0000
  O   O14       1.0  0.5977396202589672  0.44367439572376477  0.19618034959741917  1.0000
data_image104
_chemical_formula_structural       V8O14
_chemical_formula_sum              "V8 O14"
_cell_length_a       5.550582121701734
_cell_length_b       6.786413640792483
_cell_length_c       6.98693040473207
_cell_angle_alpha    64.37373990390658
_cell_angle_beta     70.29505848782973
_cell_angle_gamma    75.17998095895898

_space_group_name_H-M_alt    "P 1"
_space_group_IT_number       1

loop_
  _space_group_symop_operation_xyz
  'x, y, z'

loop_
  _atom_site_type_symbol
  _atom_site_label
  _atom_site_symmetry_multiplicity
  _atom_site_fract_x
  _atom_site_fract_y
  _atom_site_fract_z
  _atom_site_occupancy
  V   V1        1.0  0.1516779074425895  0.07884565952463872  0.2796776770967798  1.0000
  V   V2        1.0  0.6851551438889767  0.3574680389293159  0.42893315214030114  1.0000
  V   V3        1.0  0.307425632449937  0.6529882267977185  0.5977744874258196  1.0000
  V   V4        1.0  0.27495647516974353  0.6188287111942398  0.06395836876092229  1.0000
  V   V5        1.0  0.6990640350858971  0.3524710231741246  0.8762153430881835  1.0000
  V   V6        1.0  0.25632630723694716  0.10685598178700927  0.7520196749262247  1.0000
  V   V7        1.0  0.8202023950790726  0.9336614917127191  0.2306723285464645  1.0000
  V   V8        1.0  0.8207986770903625  0.8869108188997601  0.7662265820591705  1.0000
  O   O1        1.0  0.7433103011138237  0.023532811617931186  0.4936076180119341  1.0000
  O   O2        1.0  0.8150780951713936  0.23581476873730994  0.6873932795320308  1.0000
  O   O3        1.0  0.9041451416681417  0.8135357521723288  0.0013834524615856658  1.0000
  O   O4        1.0  0.042913692194818796  0.37102166928447633  0.2505664053703057  1.0000
  O   O5        1.0  0.4521411408934881  0.897338926504782  0.8705925085456643  1.0000
  O   O6        1.0  0.9878360339794746  0.15142828166792177  0.010948385359685214  1.0000
  O   O7        1.0  0.4413335435727731  0.5656511667001822  0.8107117908380734  1.0000
  O   O8        1.0  0.18677781882446415  0.8173798311952866  0.26185476075720476  1.0000
  O   O9        1.0  0.3694561470715189  0.3566418407022891  0.6178647712795658  1.0000
  O   O10       1.0  0.9185846520325223  0.5955519926432565  0.7617013133945477  1.0000
  O   O11       1.0  0.7030765846269398  0.6700353443142044  0.39203205251783463  1.0000
  O   O12       1.0  0.2580131493880173  0.00978389185297246  0.5156973737109676  1.0000
  O   O13       1.0  0.5465234894473621  0.08307998141632338  0.14534823761659718  1.0000
  O   O14       1.0  0.5884065086623324  0.42201542266571745  0.1974570721043668  1.0000
data_image105
_chemical_formula_structural       V8O14
_chemical_formula_sum              "V8 O14"
_cell_length_a       5.550582121701734
_cell_length_b       6.786413640792483
_cell_length_c       6.98693040473207
_cell_angle_alpha    64.37373990390658
_cell_angle_beta     70.29505848782973
_cell_angle_gamma    75.17998095895898

_space_group_name_H-M_alt    "P 1"
_space_group_IT_number       1

loop_
  _space_group_symop_operation_xyz
  'x, y, z'

loop_
  _atom_site_type_symbol
  _atom_site_label
  _atom_site_symmetry_multiplicity
  _atom_site_fract_x
  _atom_site_fract_y
  _atom_site_fract_z
  _atom_site_occupancy
  V   V1        1.0  0.2223661337046668  0.07387096380051977  0.2118499122907203  1.0000
  V   V2        1.0  0.7610782387478898  0.3570463617251045  0.4295891919996654  1.0000
  V   V3        1.0  0.27871118397980316  0.571528856772376  0.6339765593392392  1.0000
  V   V4        1.0  0.28310250290453376  0.6730713040680514  0.053582351834109136  1.0000
  V   V5        1.0  0.68734999860334  0.3849536846851726  0.9596845930727119  1.0000
  V   V6        1.0  0.16701990253592472  0.1084773478599591  0.6950405382373231  1.0000
  V   V7        1.0  0.8009007392251736  0.9257420087795016  0.23700010188067364  1.0000
  V   V8        1.0  0.785949666932321  0.8582810995676357  0.8008241700508187  1.0000
  O   O1        1.0  0.7865106582551693  0.08197715894385578  0.37312226943683346  1.0000
  O   O2        1.0  0.8034245467028999  0.23696196983196888  0.7009967822971351  1.0000
  O   O3        1.0  0.9796623277331541  0.8658922113924901  0.9686159711169937  1.0000
  O   O4        1.0  0.10392718364038872  0.33560218225017935  0.30818644282668534  1.0000
  O   O5        1.0  0.42460382870845104  0.9203704359264473  0.8743810256431783  1.0000
  O   O6        1.0  0.04676109621130559  0.1740713669316594  0.9849226189408437  1.0000
  O   O7        1.0  0.3755877557098791  0.5280470794257679  0.8842941532198848  1.0000
  O   O8        1.0  0.154764376339166  0.7871141112642297  0.3232469025349565  1.0000
  O   O9        1.0  0.37087370490711086  0.32459137591730597  0.5792507366232197  1.0000
  O   O10       1.0  0.960231425823329  0.5958445959318571  0.7019040707188468  1.0000
  O   O11       1.0  0.6320342793762145  0.6624936451014527  0.45437343847757833  1.0000
  O   O12       1.0  0.2205748838761531  0.8908378614858307  0.5437283416432678  1.0000
  O   O13       1.0  0.5077495164432314  0.13352717022928437  0.14006953396340535  1.0000
  O   O14       1.0  0.6808003385530061  0.580791929651164  0.09332651782892683  1.0000
data_image106
_chemical_formula_structural       V8O14
_chemical_formula_sum              "V8 O14"
_cell_length_a       5.550582121701734
_cell_length_b       6.786413640792483
_cell_length_c       6.98693040473207
_cell_angle_alpha    64.37373990390658
_cell_angle_beta     70.29505848782973
_cell_angle_gamma    75.17998095895898

_space_group_name_H-M_alt    "P 1"
_space_group_IT_number       1

loop_
  _space_group_symop_operation_xyz
  'x, y, z'

loop_
  _atom_site_type_symbol
  _atom_site_label
  _atom_site_symmetry_multiplicity
  _atom_site_fract_x
  _atom_site_fract_y
  _atom_site_fract_z
  _atom_site_occupancy
  V   V1        1.0  0.24635439610089616  0.12685694617000312  0.26397504564290997  1.0000
  V   V2        1.0  0.7302726689552489  0.3502986239913245  0.41544216208220147  1.0000
  V   V3        1.0  0.28382624804400775  0.6446485163799243  0.5543306595332611  1.0000
  V   V4        1.0  0.2636709099967302  0.613840792554162  0.059091808320510225  1.0000
  V   V5        1.0  0.7556866708658164  0.35360057076858137  0.9242235751868842  1.0000
  V   V6        1.0  0.17908301220016323  0.1193544508878941  0.8020539817771747  1.0000
  V   V7        1.0  0.7996161563850369  0.8940394881524647  0.2600038571271655  1.0000
  V   V8        1.0  0.7808647108344905  0.8718973634676132  0.7212098039778041  1.0000
  O   O1        1.0  0.6372653621607142  0.07167200608757993  0.459411277123456  1.0000
  O   O2        1.0  0.8323603861254144  0.19056006988726257  0.6859310863143243  1.0000
  O   O3        1.0  0.9861112357711582  0.8505812761316215  0.9626360911253483  1.0000
  O   O4        1.0  0.10756215674061988  0.39854060083347115  0.31314289432626863  1.0000
  O   O5        1.0  0.44087859666301177  0.854180738705309  0.9316436557413567  1.0000
  O   O6        1.0  0.012898257769852046  0.20307999969882412  0.0865856851710044  1.0000
  O   O7        1.0  0.3469753424830772  0.5369533252744415  0.8393239596804098  1.0000
  O   O8        1.0  0.188510059614484  0.7954208655988707  0.30567354775159944  1.0000
  O   O9        1.0  0.385194972597203  0.3596172040423403  0.5642766361474282  1.0000
  O   O10       1.0  0.92301187192081  0.5833392922105418  0.7183037028426404  1.0000
  O   O11       1.0  0.6576529070891162  0.6410704234907967  0.40904350557731395  1.0000
  O   O12       1.0  0.1989748919871123  0.9639599333585257  0.5190829979002752  1.0000
  O   O13       1.0  0.5345097366023241  0.09302793737104692  0.09266184181898587  1.0000
  O   O14       1.0  0.6258924945931386  0.5034144497680405  0.1137803472645149  1.0000
data_image107
_chemical_formula_structural       V8O14
_chemical_formula_sum              "V8 O14"
_cell_length_a       5.550582121701734
_cell_length_b       6.786413640792483
_cell_length_c       6.98693040473207
_cell_angle_alpha    64.37373990390658
_cell_angle_beta     70.29505848782973
_cell_angle_gamma    75.17998095895898

_space_group_name_H-M_alt    "P 1"
_space_group_IT_number       1

loop_
  _space_group_symop_operation_xyz
  'x, y, z'

loop_
  _atom_site_type_symbol
  _atom_site_label
  _atom_site_symmetry_multiplicity
  _atom_site_fract_x
  _atom_site_fract_y
  _atom_site_fract_z
  _atom_site_occupancy
  V   V1        1.0  0.1653047759570388  0.10023458370670729  0.22577276302949092  1.0000
  V   V2        1.0  0.6965505165325376  0.3582376529899756  0.40090409415805867  1.0000
  V   V3        1.0  0.2708205035872975  0.5989748864221995  0.6259799721490172  1.0000
  V   V4        1.0  0.32544257060486265  0.5978876607816224  0.12164122929868536  1.0000
  V   V5        1.0  0.7327967651236209  0.42898298639852955  0.8685937852917909  1.0000
  V   V6        1.0  0.1516595565827575  0.0786157984346423  0.7183065855997425  1.0000
  V   V7        1.0  0.8162452789213099  0.9023265114358836  0.24429909125908  1.0000
  V   V8        1.0  0.7727382076926725  0.9231382847704434  0.8370870806129146  1.0000
  O   O1        1.0  0.8622068390038984  0.054956821176664436  0.4124970430854732  1.0000
  O   O2        1.0  0.8295346914591212  0.2757847808582904  0.6767693732236815  1.0000
  O   O3        1.0  0.03435090981213307  0.8019159447626272  0.009253357867320844  1.0000
  O   O4        1.0  0.04059523531393896  0.40467039018609524  0.23274371280346698  1.0000
  O   O5        1.0  0.4561658526337563  0.8677232122657079  0.8798911613947761  1.0000
  O   O6        1.0  0.06122257820095111  0.2157042490595471  0.9490518731489821  1.0000
  O   O7        1.0  0.355704892722762  0.5764190273942038  0.8394077128231584  1.0000
  O   O8        1.0  0.15983429672472438  0.7438958699379372  0.33658249087682385  1.0000
  O   O9        1.0  0.3738277018801792  0.3084264181324116  0.5932479668417172  1.0000
  O   O10       1.0  0.9313694229366095  0.6619569014006924  0.7813165012372629  1.0000
  O   O11       1.0  0.6116783922173222  0.6638741870925561  0.39793138171568654  1.0000
  O   O12       1.0  0.37532721601909186  0.9581905204062101  0.48761280732315804  1.0000
  O   O13       1.0  0.5250664122609897  0.07765801600038194  0.10099089369939776  1.0000
  O   O14       1.0  0.6137758647337749  0.38930017517825277  0.16578928048194397  1.0000
data_image108
_chemical_formula_structural       V8O14
_chemical_formula_sum              "V8 O14"
_cell_length_a       5.550582121701734
_cell_length_b       6.786413640792483
_cell_length_c       6.98693040473207
_cell_angle_alpha    64.37373990390658
_cell_angle_beta     70.29505848782973
_cell_angle_gamma    75.17998095895898

_space_group_name_H-M_alt    "P 1"
_space_group_IT_number       1

loop_
  _space_group_symop_operation_xyz
  'x, y, z'

loop_
  _atom_site_type_symbol
  _atom_site_label
  _atom_site_symmetry_multiplicity
  _atom_site_fract_x
  _atom_site_fract_y
  _atom_site_fract_z
  _atom_site_occupancy
  V   V1        1.0  0.24341815092287955  0.09022851289799352  0.20742136024028082  1.0000
  V   V2        1.0  0.6947842404830493  0.3642352457812857  0.39974488125836144  1.0000
  V   V3        1.0  0.3072326575044029  0.6490360121059534  0.5931487234184792  1.0000
  V   V4        1.0  0.2165037706565466  0.6117611061842548  0.13486874434866108  1.0000
  V   V5        1.0  0.7150758252841617  0.39348755356510295  0.9175460550745402  1.0000
  V   V6        1.0  0.20772825623353583  0.07005871363320428  0.7707827057825355  1.0000
  V   V7        1.0  0.7318144508070652  0.9152577097501458  0.3076369660370315  1.0000
  V   V8        1.0  0.7863794921486739  0.9279795653840242  0.7888981528103574  1.0000
  O   O1        1.0  0.8113613156347609  0.06519348832059436  0.4564890118240956  1.0000
  O   O2        1.0  0.8711070710151375  0.24136865188594278  0.6762868576304872  1.0000
  O   O3        1.0  0.03514837543369387  0.7766653464987485  0.8786380225282943  1.0000
  O   O4        1.0  0.091256473979135  0.3694736331176027  0.23730242642038268  1.0000
  O   O5        1.0  0.42519423153287944  0.8882999652110064  0.9066239094819654  1.0000
  O   O6        1.0  0.9879472888040751  0.10966591128184916  0.06453750781858032  1.0000
  O   O7        1.0  0.47605369804286357  0.577576174929803  0.803223179944912  1.0000
  O   O8        1.0  0.16942273153009277  0.7463957198649123  0.33564600902584696  1.0000
  O   O9        1.0  0.30600139041490926  0.36789239229220433  0.5591641754588533  1.0000
  O   O10       1.0  0.9247159593796092  0.6028728136703587  0.7047157501564232  1.0000
  O   O11       1.0  0.7140516974203318  0.6451664901237133  0.30962131489973405  1.0000
  O   O12       1.0  0.2705332921255139  0.9884891894629257  0.49310913549100377  1.0000
  O   O13       1.0  0.6370884341141396  0.06881964338037543  0.036187771889195516  1.0000
  O   O14       1.0  0.5933254919915766  0.4457218691502989  0.16116590195189218  1.0000
data_image109
_chemical_formula_structural       V8O14
_chemical_formula_sum              "V8 O14"
_cell_length_a       5.550582121701734
_cell_length_b       6.786413640792483
_cell_length_c       6.98693040473207
_cell_angle_alpha    64.37373990390658
_cell_angle_beta     70.29505848782973
_cell_angle_gamma    75.17998095895898

_space_group_name_H-M_alt    "P 1"
_space_group_IT_number       1

loop_
  _space_group_symop_operation_xyz
  'x, y, z'

loop_
  _atom_site_type_symbol
  _atom_site_label
  _atom_site_symmetry_multiplicity
  _atom_site_fract_x
  _atom_site_fract_y
  _atom_site_fract_z
  _atom_site_occupancy
  V   V1        1.0  0.16559583397797975  0.1225918935367589  0.24816955846220073  1.0000
  V   V2        1.0  0.7462956362838777  0.3677085307138463  0.41417599128661137  1.0000
  V   V3        1.0  0.29776720198852114  0.6207477201317946  0.5710418512288431  1.0000
  V   V4        1.0  0.2443591002443375  0.6514605652996315  0.07589907919768062  1.0000
  V   V5        1.0  0.745155284129664  0.3787809128413046  0.8914594221055356  1.0000
  V   V6        1.0  0.23276011560596413  0.0515085130091669  0.7328981077892972  1.0000
  V   V7        1.0  0.7970585569942086  0.9341108485738476  0.223015634257383  1.0000
  V   V8        1.0  0.7387617675469984  0.8979098638231149  0.7798311766335672  1.0000
  O   O1        1.0  0.7130069450026031  0.050498542233647525  0.4703409521853177  1.0000
  O   O2        1.0  0.9040540274524882  0.18830474680362524  0.7344303426923804  1.0000
  O   O3        1.0  0.029084206065824514  0.8014676459514947  0.9141301975928018  1.0000
  O   O4        1.0  0.09288461351971737  0.3847191338687203  0.3100050799695971  1.0000
  O   O5        1.0  0.40506410285235767  0.9288091572537946  0.9555373064946451  1.0000
  O   O6        1.0  0.020330820269140504  0.14778651715835955  0.05807847679599602  1.0000
  O   O7        1.0  0.39739463216952214  0.5593182988648204  0.8349359828608705  1.0000
  O   O8        1.0  0.14282517129469485  0.7420026719031598  0.33280079316891054  1.0000
  O   O9        1.0  0.39557470906317477  0.3297109859285066  0.6256975571162943  1.0000
  O   O10       1.0  0.9465208989496248  0.5915041179949935  0.7799611447051537  1.0000
  O   O11       1.0  0.650508193641105  0.6510228280285201  0.4637955031191043  1.0000
  O   O12       1.0  0.24639038302642238  0.9549586753663364  0.5271452550787445  1.0000
  O   O13       1.0  0.5546217774625263  0.07231680107108512  0.09046251356128068  1.0000
  O   O14       1.0  0.6093120997484419  0.4879816443447381  0.10802727756343591  1.0000
data_image110
_chemical_formula_structural       V8O14
_chemical_formula_sum              "V8 O14"
_cell_length_a       5.550582121701734
_cell_length_b       6.786413640792483
_cell_length_c       6.98693040473207
_cell_angle_alpha    64.37373990390658
_cell_angle_beta     70.29505848782973
_cell_angle_gamma    75.17998095895898

_space_group_name_H-M_alt    "P 1"
_space_group_IT_number       1

loop_
  _space_group_symop_operation_xyz
  'x, y, z'

loop_
  _atom_site_type_symbol
  _atom_site_label
  _atom_site_symmetry_multiplicity
  _atom_site_fract_x
  _atom_site_fract_y
  _atom_site_fract_z
  _atom_site_occupancy
  V   V1        1.0  0.2125966912747819  0.11842628148056233  0.19670227099389778  1.0000
  V   V2        1.0  0.7159671470789107  0.3169666148789918  0.4499427807806835  1.0000
  V   V3        1.0  0.2923778782431127  0.6573317818793919  0.5663822091193261  1.0000
  V   V4        1.0  0.2851575891850188  0.686446501741659  0.0741669592153927  1.0000
  V   V5        1.0  0.7113557878729174  0.3612050626163386  0.8956573913010597  1.0000
  V   V6        1.0  0.22419885445416093  0.08377554864593517  0.7606731589193029  1.0000
  V   V7        1.0  0.820183859142481  0.8919199313435545  0.2880637968928437  1.0000
  V   V8        1.0  0.8051859135704702  0.8412737519092469  0.7914187869015346  1.0000
  O   O1        1.0  0.635745719236568  0.010241021237234317  0.5326504401138501  1.0000
  O   O2        1.0  0.8649982194269377  0.23211700556905976  0.6539319957767314  1.0000
  O   O3        1.0  0.9930811353617854  0.8044319838768857  0.016332765908286806  1.0000
  O   O4        1.0  0.059372121597812404  0.3552613822421884  0.27565584887797473  1.0000
  O   O5        1.0  0.4728057285357841  0.95535448362724  0.9029233108900249  1.0000
  O   O6        1.0  0.02058688783722767  0.19478899345931158  0.0024371347383420785  1.0000
  O   O7        1.0  0.3502700274970488  0.5819085925194802  0.8314562886604594  1.0000
  O   O8        1.0  0.18814479553312308  0.7308918023462195  0.3122462125143021  1.0000
  O   O9        1.0  0.3690905627808033  0.3784684260865447  0.5734784826433379  1.0000
  O   O10       1.0  0.9015665597328915  0.6136178014842096  0.6811656233143016  1.0000
  O   O11       1.0  0.6394008005218735  0.6232269172562471  0.41412196311366867  1.0000
  O   O12       1.0  0.13624458437567588  0.9366131506383357  0.5270521894771207  1.0000
  O   O13       1.0  0.5728620830266749  0.13878303935969422  0.06309011069966179  1.0000
  O   O14       1.0  0.5816439216192225  0.5561305102961084  0.14022410166515947  1.0000
data_image111
_chemical_formula_structural       V8O14
_chemical_formula_sum              "V8 O14"
_cell_length_a       5.550582121701734
_cell_length_b       6.786413640792483
_cell_length_c       6.98693040473207
_cell_angle_alpha    64.37373990390658
_cell_angle_beta     70.29505848782973
_cell_angle_gamma    75.17998095895898

_space_group_name_H-M_alt    "P 1"
_space_group_IT_number       1

loop_
  _space_group_symop_operation_xyz
  'x, y, z'

loop_
  _atom_site_type_symbol
  _atom_site_label
  _atom_site_symmetry_multiplicity
  _atom_site_fract_x
  _atom_site_fract_y
  _atom_site_fract_z
  _atom_site_occupancy
  V   V1        1.0  0.21207433454974695  0.035691279730392315  0.2526940709477417  1.0000
  V   V2        1.0  0.6944223346621133  0.42340817349313703  0.40414317094468083  1.0000
  V   V3        1.0  0.24069539984672836  0.6029823751309696  0.6495650351261412  1.0000
  V   V4        1.0  0.2462920463325151  0.5980524843421235  0.15391512784481845  1.0000
  V   V5        1.0  0.7557563460781812  0.3739871346812688  0.9163460371421268  1.0000
  V   V6        1.0  0.19597260708046946  0.09536223148816961  0.720024595483109  1.0000
  V   V7        1.0  0.8068666708776279  0.92619634387095  0.22099484927320848  1.0000
  V   V8        1.0  0.8016369763767123  0.9419568114955784  0.7534363474007316  1.0000
  O   O1        1.0  0.7837600076693503  0.03385756293002521  0.40403970226881586  1.0000
  O   O2        1.0  0.8778950699360784  0.27421717213922076  0.6748048640526567  1.0000
  O   O3        1.0  0.9755383560856608  0.8225807076454429  0.014769108294209854  1.0000
  O   O4        1.0  0.08435859359452223  0.35144851685768014  0.28158889009711296  1.0000
  O   O5        1.0  0.47118474555934275  0.881162506520915  0.8292362778202942  1.0000
  O   O6        1.0  0.06422448158162695  0.21506663030193082  0.9520844152190295  1.0000
  O   O7        1.0  0.4038121041927418  0.4963665130872105  0.8570222539500992  1.0000
  O   O8        1.0  0.18032605937858093  0.7294357261632808  0.3340008744709365  1.0000
  O   O9        1.0  0.3355970895314846  0.3411632895165377  0.5365337159686036  1.0000
  O   O10       1.0  0.9099225915481526  0.6362154811791242  0.7515277709328854  1.0000
  O   O11       1.0  0.6164714557312365  0.7107028664880121  0.386443431164472  1.0000
  O   O12       1.0  0.23710139033687744  0.941278883341638  0.5353271196174317  1.0000
  O   O13       1.0  0.5421381240873654  0.09874155242276708  0.05833011565236027  1.0000
  O   O14       1.0  0.6659552924570292  0.44855297691046564  0.16065140764973268  1.0000
data_image112
_chemical_formula_structural       V8O14
_chemical_formula_sum              "V8 O14"
_cell_length_a       5.550582121701734
_cell_length_b       6.786413640792483
_cell_length_c       6.98693040473207
_cell_angle_alpha    64.37373990390658
_cell_angle_beta     70.29505848782973
_cell_angle_gamma    75.17998095895898

_space_group_name_H-M_alt    "P 1"
_space_group_IT_number       1

loop_
  _space_group_symop_operation_xyz
  'x, y, z'

loop_
  _atom_site_type_symbol
  _atom_site_label
  _atom_site_symmetry_multiplicity
  _atom_site_fract_x
  _atom_site_fract_y
  _atom_site_fract_z
  _atom_site_occupancy
  V   V1        1.0  0.13754923094425253  0.10169164870615283  0.2845534659256002  1.0000
  V   V2        1.0  0.7477909544078011  0.3966579467327998  0.40501952755826803  1.0000
  V   V3        1.0  0.2648395899356875  0.6313006849123444  0.5499843241927418  1.0000
  V   V4        1.0  0.25832526228929265  0.6716366660762138  0.06172568134379028  1.0000
  V   V5        1.0  0.6898390141487244  0.3463338484017451  0.9213463742387955  1.0000
  V   V6        1.0  0.19427623675674652  0.10696812641079262  0.7700260127516397  1.0000
  V   V7        1.0  0.7889522727980758  0.8849764342740439  0.2536703891807059  1.0000
  V   V8        1.0  0.8342497533076371  0.8809256088378512  0.715173949612396  1.0000
  O   O1        1.0  0.7964597391250143  0.026974011782579663  0.4316305776460497  1.0000
  O   O2        1.0  0.8693270513885684  0.20082595869554673  0.673839332276982  1.0000
  O   O3        1.0  0.9429599714245086  0.860221127504879  0.9765556341561529  1.0000
  O   O4        1.0  0.1633495177626251  0.38567982684354496  0.31403167921402525  1.0000
  O   O5        1.0  0.4619094325999797  0.9402625920118589  0.8894030598474546  1.0000
  O   O6        1.0  0.0866594444626278  0.120736272996504  0.04404179290257143  1.0000
  O   O7        1.0  0.42734205667733133  0.5447431758546224  0.8336499028097355  1.0000
  O   O8        1.0  0.17439794251977078  0.7547456562754342  0.3052974630953949  1.0000
  O   O9        1.0  0.3608761341495079  0.34466641449800256  0.5730403505104437  1.0000
  O   O10       1.0  0.9313185758292457  0.5602788661028812  0.7454596903797269  1.0000
  O   O11       1.0  0.6563095477878966  0.6345483078770775  0.48997093618404264  1.0000
  O   O12       1.0  0.20585024746354558  0.9426497396862183  0.571018105590083  1.0000
  O   O13       1.0  0.5233684094316711  0.09986831281949415  0.13739434842438783  1.0000
  O   O14       1.0  0.6681612775206728  0.5002863205601435  0.12961211220364074  1.0000
data_image113
_chemical_formula_structural       V8O14
_chemical_formula_sum              "V8 O14"
_cell_length_a       5.550582121701734
_cell_length_b       6.786413640792483
_cell_length_c       6.98693040473207
_cell_angle_alpha    64.37373990390658
_cell_angle_beta     70.29505848782973
_cell_angle_gamma    75.17998095895898

_space_group_name_H-M_alt    "P 1"
_space_group_IT_number       1

loop_
  _space_group_symop_operation_xyz
  'x, y, z'

loop_
  _atom_site_type_symbol
  _atom_site_label
  _atom_site_symmetry_multiplicity
  _atom_site_fract_x
  _atom_site_fract_y
  _atom_site_fract_z
  _atom_site_occupancy
  V   V1        1.0  0.22627660812800163  0.15436139825703826  0.21287592171261457  1.0000
  V   V2        1.0  0.6445757543557992  0.32643064144765094  0.437739835244205  1.0000
  V   V3        1.0  0.29160878024524645  0.6406887843977627  0.6063616382702308  1.0000
  V   V4        1.0  0.2946020239258102  0.6444378208595783  0.08253196380636947  1.0000
  V   V5        1.0  0.73597803105571  0.3842745994233456  0.8804816953848912  1.0000
  V   V6        1.0  0.13029905550707926  0.10559858910619996  0.7529148128681725  1.0000
  V   V7        1.0  0.8579233874208161  0.8900605414614599  0.24565283069844668  1.0000
  V   V8        1.0  0.7777693492299498  0.9112840746298979  0.7650988085611423  1.0000
  O   O1        1.0  0.8831773531259667  0.004683182522790776  0.4592859738431641  1.0000
  O   O2        1.0  0.7800542679912019  0.23694253903743245  0.7075916650839363  1.0000
  O   O3        1.0  0.013051922876183841  0.8305312682880891  0.9768218809070034  1.0000
  O   O4        1.0  0.06647066701250945  0.380456806583974  0.27836809534824913  1.0000
  O   O5        1.0  0.4234795966609715  0.9009811070072232  0.8227238237827206  1.0000
  O   O6        1.0  0.05289090222056161  0.2075031339818283  0.0021536625891765363  1.0000
  O   O7        1.0  0.3492749547658  0.5126627482361581  0.8752025094283252  1.0000
  O   O8        1.0  0.24931006940779676  0.6999394724873285  0.3130516965937565  1.0000
  O   O9        1.0  0.2741944527188588  0.3540156665239857  0.6187344287945058  1.0000
  O   O10       1.0  0.9383445259538926  0.5891818681160595  0.7599672989205817  1.0000
  O   O11       1.0  0.6593112956739755  0.6094813788451174  0.4632273804784441  1.0000
  O   O12       1.0  0.2591137682322432  0.9595740784618185  0.5289140189508862  1.0000
  O   O13       1.0  0.5877764263136963  0.08908951426042995  0.06612555629353582  1.0000
  O   O14       1.0  0.6007688322783021  0.4207604433112751  0.16853344731420983  1.0000
data_image114
_chemical_formula_structural       V8O14
_chemical_formula_sum              "V8 O14"
_cell_length_a       5.550582121701734
_cell_length_b       6.786413640792483
_cell_length_c       6.98693040473207
_cell_angle_alpha    64.37373990390658
_cell_angle_beta     70.29505848782973
_cell_angle_gamma    75.17998095895898

_space_group_name_H-M_alt    "P 1"
_space_group_IT_number       1

loop_
  _space_group_symop_operation_xyz
  'x, y, z'

loop_
  _atom_site_type_symbol
  _atom_site_label
  _atom_site_symmetry_multiplicity
  _atom_site_fract_x
  _atom_site_fract_y
  _atom_site_fract_z
  _atom_site_occupancy
  V   V1        1.0  0.2039334024506991  0.11943083848740566  0.21133923117422462  1.0000
  V   V2        1.0  0.7013106080351501  0.3672025304344447  0.4396555170515241  1.0000
  V   V3        1.0  0.2697198544659187  0.6411891110114704  0.5926721978548182  1.0000
  V   V4        1.0  0.3023668805724506  0.6344629973581682  0.10070151534350777  1.0000
  V   V5        1.0  0.7190888995166289  0.38436364800683126  0.912722051344995  1.0000
  V   V6        1.0  0.21245660853275183  0.11406687817811138  0.7105632955066445  1.0000
  V   V7        1.0  0.801068951338862  0.9095958839354833  0.2366521691082963  1.0000
  V   V8        1.0  0.8478547851053838  0.9195079673843432  0.738949130015993  1.0000
  O   O1        1.0  0.697054429838803  0.04569344788738609  0.4531071299172373  1.0000
  O   O2        1.0  0.8046057785987163  0.22016061991395272  0.6863617093662029  1.0000
  O   O3        1.0  0.005649146137552297  0.7512657958981123  0.019498202062976366  1.0000
  O   O4        1.0  0.060876747005455555  0.37727259278779546  0.2845551283737001  1.0000
  O   O5        1.0  0.46781332080476895  0.8228992938578034  0.8906270640631563  1.0000
  O   O6        1.0  0.03761630919582189  0.18131711401895975  0.9671514097434508  1.0000
  O   O7        1.0  0.38109600784919967  0.46909374370292267  0.8861985067835935  1.0000
  O   O8        1.0  0.210975236064866  0.7397570776890157  0.312490601205241  1.0000
  O   O9        1.0  0.36973948378326993  0.3397389667429069  0.6071817150063941  1.0000
  O   O10       1.0  0.9117552684069415  0.5802357318860101  0.7663177340113941  1.0000
  O   O11       1.0  0.6243903526086193  0.6564401750439127  0.4938311839352553  1.0000
  O   O12       1.0  0.15265857875085953  0.9929434113253789  0.5346984637180277  1.0000
  O   O13       1.0  0.5303250333942032  0.07334023701210607  0.07409353805907569  1.0000
  O   O14       1.0  0.5755575547737688  0.44864142591683054  0.1913843652530845  1.0000
data_image115
_chemical_formula_structural       V8O14
_chemical_formula_sum              "V8 O14"
_cell_length_a       5.550582121701734
_cell_length_b       6.786413640792483
_cell_length_c       6.98693040473207
_cell_angle_alpha    64.37373990390658
_cell_angle_beta     70.29505848782973
_cell_angle_gamma    75.17998095895898

_space_group_name_H-M_alt    "P 1"
_space_group_IT_number       1

loop_
  _space_group_symop_operation_xyz
  'x, y, z'

loop_
  _atom_site_type_symbol
  _atom_site_label
  _atom_site_symmetry_multiplicity
  _atom_site_fract_x
  _atom_site_fract_y
  _atom_site_fract_z
  _atom_site_occupancy
  V   V1        1.0  0.2016516211430855  0.08052175325799553  0.24902056747594614  1.0000
  V   V2        1.0  0.6882192870875757  0.3720448277433799  0.3910357275560232  1.0000
  V   V3        1.0  0.26984881452047205  0.6243710254253083  0.6014942297747639  1.0000
  V   V4        1.0  0.31359023729062757  0.6091186812431324  0.09647953957697  1.0000
  V   V5        1.0  0.7226355557491905  0.3792232537144685  0.8844959179626798  1.0000
  V   V6        1.0  0.2044626253935813  0.07955569670726541  0.7885339883780599  1.0000
  V   V7        1.0  0.8168879170275263  0.8991062182384814  0.2520009643967584  1.0000
  V   V8        1.0  0.7646238645451009  0.9331664288808872  0.7522131092392064  1.0000
  O   O1        1.0  0.7722495585237921  0.06716657928041804  0.431788719398749  1.0000
  O   O2        1.0  0.8642789173746503  0.2308349854784714  0.6570656595261438  1.0000
  O   O3        1.0  0.9637450067339312  0.8239012636617121  0.9696379595435606  1.0000
  O   O4        1.0  0.08081952486770902  0.39618469631583114  0.24213650011567547  1.0000
  O   O5        1.0  0.46071593835244257  0.8586701925088392  0.9424562554115089  1.0000
  O   O6        1.0  0.010174064681028326  0.19766087231948562  0.025200462040281802  1.0000
  O   O7        1.0  0.35488792553086224  0.5375071093568878  0.8416904799576634  1.0000
  O   O8        1.0  0.19279997019160527  0.7422338632122318  0.30464514955533195  1.0000
  O   O9        1.0  0.3878457393198215  0.2862283283399482  0.6421227324510373  1.0000
  O   O10       1.0  0.9073072715957846  0.6625566691805151  0.6949838263723466  1.0000
  O   O11       1.0  0.6385274809205309  0.6690862915153847  0.41169878724578485  1.0000
  O   O12       1.0  0.2720169131882219  0.9570855901207388  0.5369531714038577  1.0000
  O   O13       1.0  0.5389424847791987  0.14835516493803952  0.10161165349426723  1.0000
  O   O14       1.0  0.6172245799248185  0.48404734484653433  0.12516216227682486  1.0000
data_image116
_chemical_formula_structural       V8O14
_chemical_formula_sum              "V8 O14"
_cell_length_a       5.550582121701734
_cell_length_b       6.786413640792483
_cell_length_c       6.98693040473207
_cell_angle_alpha    64.37373990390658
_cell_angle_beta     70.29505848782973
_cell_angle_gamma    75.17998095895898

_space_group_name_H-M_alt    "P 1"
_space_group_IT_number       1

loop_
  _space_group_symop_operation_xyz
  'x, y, z'

loop_
  _atom_site_type_symbol
  _atom_site_label
  _atom_site_symmetry_multiplicity
  _atom_site_fract_x
  _atom_site_fract_y
  _atom_site_fract_z
  _atom_site_occupancy
  V   V1        1.0  0.1404129943102038  0.11536639325215267  0.2360009246962164  1.0000
  V   V2        1.0  0.7874244472168851  0.3766104373005673  0.37628508703707697  1.0000
  V   V3        1.0  0.29837083271906184  0.5930166506294665  0.6129946379472819  1.0000
  V   V4        1.0  0.284701255665179  0.6501548913565327  0.12292369843493792  1.0000
  V   V5        1.0  0.6913157924475224  0.34488609400242304  0.934154286725373  1.0000
  V   V6        1.0  0.2356977682308001  0.09385559563884581  0.7210213332620291  1.0000
  V   V7        1.0  0.7478527424708111  0.9233139784249057  0.2437587855478627  1.0000
  V   V8        1.0  0.8354373157723775  0.8675439747574869  0.7753605844044787  1.0000
  O   O1        1.0  0.7614487156916717  0.06684444300368968  0.4253280219967204  1.0000
  O   O2        1.0  0.8114144822988408  0.22980084806648657  0.6861172122015562  1.0000
  O   O3        1.0  0.9503849406296316  0.810770000262602  0.008729050896235213  1.0000
  O   O4        1.0  0.11378975984646365  0.4228833581190397  0.21361240801076423  1.0000
  O   O5        1.0  0.47094956181255243  0.8885647053864035  0.923909142757277  1.0000
  O   O6        1.0  0.03140608584471143  0.20077148859938393  0.9859174181869317  1.0000
  O   O7        1.0  0.38457438998222515  0.5811257764840227  0.8242837563753128  1.0000
  O   O8        1.0  0.16706922775888117  0.8376838562980247  0.2868626606791153  1.0000
  O   O9        1.0  0.3504698288135088  0.37462500550948546  0.5231639358431837  1.0000
  O   O10       1.0  0.9076459487693209  0.5690295934373629  0.7674204315130443  1.0000
  O   O11       1.0  0.6315396026693157  0.6269341370101259  0.4309633520018017  1.0000
  O   O12       1.0  0.2167981791480467  0.9009751354122127  0.5917632289697728  1.0000
  O   O13       1.0  0.5060881494717998  0.09652723163893077  0.10007199879124827  1.0000
  O   O14       1.0  0.6286268738571298  0.49450008653418664  0.14084941799409245  1.0000
data_image117
_chemical_formula_structural       V8O14
_chemical_formula_sum              "V8 O14"
_cell_length_a       5.550582121701734
_cell_length_b       6.786413640792483
_cell_length_c       6.98693040473207
_cell_angle_alpha    64.37373990390658
_cell_angle_beta     70.29505848782973
_cell_angle_gamma    75.17998095895898

_space_group_name_H-M_alt    "P 1"
_space_group_IT_number       1

loop_
  _space_group_symop_operation_xyz
  'x, y, z'

loop_
  _atom_site_type_symbol
  _atom_site_label
  _atom_site_symmetry_multiplicity
  _atom_site_fract_x
  _atom_site_fract_y
  _atom_site_fract_z
  _atom_site_occupancy
  V   V1        1.0  0.20169724524821903  0.12620068571955928  0.1957281511546795  1.0000
  V   V2        1.0  0.6398116648337656  0.3726467539031411  0.43705738690721013  1.0000
  V   V3        1.0  0.3052168021176634  0.6588474542088179  0.5636614326882244  1.0000
  V   V4        1.0  0.2978807540625404  0.5849452690570793  0.10116301666662428  1.0000
  V   V5        1.0  0.7022793818012047  0.38617113074790455  0.8969636482111187  1.0000
  V   V6        1.0  0.18374027751712046  0.07771595638671477  0.7639615818843605  1.0000
  V   V7        1.0  0.885517964066047  0.8765459978373774  0.2445096129110241  1.0000
  V   V8        1.0  0.7958854831400926  0.88765541962509  0.7691802970086598  1.0000
  O   O1        1.0  0.7472854395147617  0.05407797807492938  0.4375791916635154  1.0000
  O   O2        1.0  0.763938707302318  0.21890793149890225  0.7121593307502511  1.0000
  O   O3        1.0  0.9917345745676729  0.7739330312800238  0.00400470893969862  1.0000
  O   O4        1.0  0.08454049715183914  0.37488791404822636  0.34152698562147293  1.0000
  O   O5        1.0  0.4729848188065531  0.9177639209238214  0.8535536419375688  1.0000
  O   O6        1.0  0.0005454265954164752  0.18264715764186815  0.020856124260496302  1.0000
  O   O7        1.0  0.4036002230748001  0.5495451662566768  0.8325371734906771  1.0000
  O   O8        1.0  0.24010643105585391  0.7993131366721539  0.2803531475955848  1.0000
  O   O9        1.0  0.27766338286281833  0.37643328573729906  0.6063620133076577  1.0000
  O   O10       1.0  0.9359553001535796  0.673544888385183  0.6681970595103511  1.0000
  O   O11       1.0  0.6129238180629515  0.6647678193599408  0.46658904595799067  1.0000
  O   O12       1.0  0.23063645331224095  0.9470902421805093  0.5794424618328738  1.0000
  O   O13       1.0  0.5438990311845587  0.08651526814581796  0.1488330933564651  1.0000
  O   O14       1.0  0.6483124283344677  0.4672128442060963  0.11898088332466664  1.0000
data_image118
_chemical_formula_structural       V8O14
_chemical_formula_sum              "V8 O14"
_cell_length_a       5.550582121701734
_cell_length_b       6.786413640792483
_cell_length_c       6.98693040473207
_cell_angle_alpha    64.37373990390658
_cell_angle_beta     70.29505848782973
_cell_angle_gamma    75.17998095895898

_space_group_name_H-M_alt    "P 1"
_space_group_IT_number       1

loop_
  _space_group_symop_operation_xyz
  'x, y, z'

loop_
  _atom_site_type_symbol
  _atom_site_label
  _atom_site_symmetry_multiplicity
  _atom_site_fract_x
  _atom_site_fract_y
  _atom_site_fract_z
  _atom_site_occupancy
  V   V1        1.0  0.1382960803189868  0.07292640366359046  0.3011140421760632  1.0000
  V   V2        1.0  0.7530717318672794  0.43969553231575287  0.3545973009581599  1.0000
  V   V3        1.0  0.26924565728101796  0.6299192745971344  0.6017070929739232  1.0000
  V   V4        1.0  0.33856280095374985  0.6006092797514812  0.11639846786007749  1.0000
  V   V5        1.0  0.7645110866134958  0.38087491714394067  0.8657978647802789  1.0000
  V   V6        1.0  0.18474207182292215  0.1179228961358299  0.7545153681471408  1.0000
  V   V7        1.0  0.7627603061905484  0.9051707578358458  0.2356070178858937  1.0000
  V   V8        1.0  0.78395998321009  0.9335322856100079  0.7141420247649721  1.0000
  O   O1        1.0  0.7618301073751483  0.04363883639483089  0.4293453041645749  1.0000
  O   O2        1.0  0.83201030471511  0.2645456294735145  0.6683466373249517  1.0000
  O   O3        1.0  0.9381975810982152  0.7790877293762887  0.015034229357807405  1.0000
  O   O4        1.0  0.1310582049776373  0.3558848640045873  0.2159340328041908  1.0000
  O   O5        1.0  0.4621704010035566  0.873504076113794  0.875336171783687  1.0000
  O   O6        1.0  0.0027840036626042186  0.15597115825315488  0.03619827494144951  1.0000
  O   O7        1.0  0.42849134249786835  0.527438858287517  0.8550074869415036  1.0000
  O   O8        1.0  0.1577059138441601  0.7737554476856462  0.32774388205088717  1.0000
  O   O9        1.0  0.35861199174994424  0.3316945957303536  0.6332098108904176  1.0000
  O   O10       1.0  0.922715619455458  0.6058019249437846  0.7509726417946049  1.0000
  O   O11       1.0  0.6471162019013701  0.699338128818004  0.45415644322315735  1.0000
  O   O12       1.0  0.2531917863192783  0.9075299456722993  0.6018472340807216  1.0000
  O   O13       1.0  0.5331956523958711  0.04370252553589552  0.09435439360116596  1.0000
  O   O14       1.0  0.5814468739605717  0.37468689238346636  0.2056548552740353  1.0000
data_image119
_chemical_formula_structural       V8O14
_chemical_formula_sum              "V8 O14"
_cell_length_a       5.550582121701734
_cell_length_b       6.786413640792483
_cell_length_c       6.98693040473207
_cell_angle_alpha    64.37373990390658
_cell_angle_beta     70.29505848782973
_cell_angle_gamma    75.17998095895898

_space_group_name_H-M_alt    "P 1"
_space_group_IT_number       1

loop_
  _space_group_symop_operation_xyz
  'x, y, z'

loop_
  _atom_site_type_symbol
  _atom_site_label
  _atom_site_symmetry_multiplicity
  _atom_site_fract_x
  _atom_site_fract_y
  _atom_site_fract_z
  _atom_site_occupancy
  V   V1        1.0  0.13897518935189737  0.08833995159779419  0.22230881085923293  1.0000
  V   V2        1.0  0.777717849473574  0.4181118977736497  0.4055756683240711  1.0000
  V   V3        1.0  0.26483238175028573  0.6555911806117558  0.5787110964608027  1.0000
  V   V4        1.0  0.29273587578189464  0.5669356923021658  0.18757969258503013  1.0000
  V   V5        1.0  0.7359106545093429  0.3800753888396223  0.8724508373180715  1.0000
  V   V6        1.0  0.24774884238552825  0.13836026684953373  0.6697461087624188  1.0000
  V   V7        1.0  0.7128554574289045  0.9235172372977342  0.2605466519061519  1.0000
  V   V8        1.0  0.7716090789867128  0.8970625089835811  0.8133323558245095  1.0000
  O   O1        1.0  0.8196050769220803  0.012927958905985814  0.4074584692680983  1.0000
  O   O2        1.0  0.8620989647388273  0.21445396523838955  0.6834347314620655  1.0000
  O   O3        1.0  0.9347146673109277  0.7497278435834991  0.06646143300532703  1.0000
  O   O4        1.0  0.0875735753770131  0.3212709285719478  0.31595825021433144  1.0000
  O   O5        1.0  0.4182031590189227  0.9286993788079764  0.8777175568614553  1.0000
  O   O6        1.0  0.005487043928956784  0.1349932247656323  0.9847655335858173  1.0000
  O   O7        1.0  0.3758080558538475  0.4784208737390426  0.8799268101673248  1.0000
  O   O8        1.0  0.18358131243809991  0.7841948174180448  0.29329138846995945  1.0000
  O   O9        1.0  0.435132497507267  0.37739102307425293  0.4932896969024035  1.0000
  O   O10       1.0  0.9402235316028545  0.6256077681121192  0.7322464688371582  1.0000
  O   O11       1.0  0.6972770688406682  0.6222923046784212  0.5168168601986324  1.0000
  O   O12       1.0  0.27026877872690036  0.9331128252644871  0.5538957222625076  1.0000
  O   O13       1.0  0.4544470062543961  0.10788806733417741  0.06095019541543846  1.0000
  O   O14       1.0  0.6985754125377481  0.4854654201253729  0.08271560263031937  1.0000
data_image120
_chemical_formula_structural       V8O14
_chemical_formula_sum              "V8 O14"
_cell_length_a       5.550582121701734
_cell_length_b       6.786413640792483
_cell_length_c       6.98693040473207
_cell_angle_alpha    64.37373990390658
_cell_angle_beta     70.29505848782973
_cell_angle_gamma    75.17998095895898

_space_group_name_H-M_alt    "P 1"
_space_group_IT_number       1

loop_
  _space_group_symop_operation_xyz
  'x, y, z'

loop_
  _atom_site_type_symbol
  _atom_site_label
  _atom_site_symmetry_multiplicity
  _atom_site_fract_x
  _atom_site_fract_y
  _atom_site_fract_z
  _atom_site_occupancy
  V   V1        1.0  0.22401652367117011  0.09812834993197624  0.18376136359372852  1.0000
  V   V2        1.0  0.7563895044545033  0.3699049154514174  0.3684222228388554  1.0000
  V   V3        1.0  0.2630018923870232  0.6408420974702858  0.5975102355703779  1.0000
  V   V4        1.0  0.2215847925764213  0.6425026876674159  0.10407765893365785  1.0000
  V   V5        1.0  0.7687005696506399  0.366146811070519  0.9170885093089707  1.0000
  V   V6        1.0  0.21261296303334043  0.10054583053680666  0.6784890915471624  1.0000
  V   V7        1.0  0.7456601471636173  0.9079592642361621  0.30093495387210717  1.0000
  V   V8        1.0  0.7257374676514308  0.8785745629526155  0.8813033684610437  1.0000
  O   O1        1.0  0.8921018649475785  0.07600736297528637  0.35061734771787034  1.0000
  O   O2        1.0  0.8487590030095292  0.1403807790398183  0.7116304675972175  1.0000
  O   O3        1.0  0.8852225542132626  0.7949594007723069  0.08127895028273424  1.0000
  O   O4        1.0  0.1300016533704146  0.3642750537580427  0.293951454573612  1.0000
  O   O5        1.0  0.39972638250347214  0.9219215974692028  0.8758073869075196  1.0000
  O   O6        1.0  0.02626734245942873  0.13741954547646243  0.9785898694024202  1.0000
  O   O7        1.0  0.4072760564813357  0.5154904507777957  0.8754512738433187  1.0000
  O   O8        1.0  0.2220648843445646  0.7656460076572125  0.29850759758704903  1.0000
  O   O9        1.0  0.4589604175481745  0.3030745498501226  0.5464535874983992  1.0000
  O   O10       1.0  0.8888140486344511  0.7110724260295787  0.70589803792162  1.0000
  O   O11       1.0  0.6330174756512824  0.630641353048369  0.45785467200569696  1.0000
  O   O12       1.0  0.2911556547853511  0.9577178738931704  0.4982769377264053  1.0000
  O   O13       1.0  0.5440270440677797  0.13888034855593695  0.11485931404611914  1.0000
  O   O14       1.0  0.6446789009787427  0.5164510664801295  0.09322736732612981  1.0000
data_image121
_chemical_formula_structural       V8O14
_chemical_formula_sum              "V8 O14"
_cell_length_a       5.550582121701734
_cell_length_b       6.786413640792483
_cell_length_c       6.98693040473207
_cell_angle_alpha    64.37373990390658
_cell_angle_beta     70.29505848782973
_cell_angle_gamma    75.17998095895898

_space_group_name_H-M_alt    "P 1"
_space_group_IT_number       1

loop_
  _space_group_symop_operation_xyz
  'x, y, z'

loop_
  _atom_site_type_symbol
  _atom_site_label
  _atom_site_symmetry_multiplicity
  _atom_site_fract_x
  _atom_site_fract_y
  _atom_site_fract_z
  _atom_site_occupancy
  V   V1        1.0  0.17582997487467078  0.09326274947856981  0.20044312624857924  1.0000
  V   V2        1.0  0.726356584642445  0.35512984870163405  0.4223599127675599  1.0000
  V   V3        1.0  0.302685615764618  0.6816811249978385  0.570812981328747  1.0000
  V   V4        1.0  0.2556860149761785  0.6444854363857982  0.08363703528966826  1.0000
  V   V5        1.0  0.7114767888849031  0.3738793024679157  0.9152909447073092  1.0000
  V   V6        1.0  0.22507795358707522  0.1279399156278442  0.6628659417264872  1.0000
  V   V7        1.0  0.8153270046564295  0.8604809069659571  0.29959007052324865  1.0000
  V   V8        1.0  0.7458946898439728  0.8981308850876726  0.8615253600981603  1.0000
  O   O1        1.0  0.8129122054828372  0.05459072470299058  0.371045907722558  1.0000
  O   O2        1.0  0.8327413253870984  0.16652536478638527  0.6941577669649178  1.0000
  O   O3        1.0  0.9248698742270581  0.7302262575344572  0.0993541499370314  1.0000
  O   O4        1.0  0.13616194288845682  0.3452219884687902  0.30102800580244415  1.0000
  O   O5        1.0  0.4246799029906908  0.9257735376064862  0.8374017217786068  1.0000
  O   O6        1.0  0.0477716422532339  0.1893834625724799  0.9516635685977146  1.0000
  O   O7        1.0  0.3422956796294068  0.5020283668556844  0.8794742036509944  1.0000
  O   O8        1.0  0.2204356457529167  0.7966127614769783  0.28753380227540937  1.0000
  O   O9        1.0  0.33193513126678387  0.3721434443479483  0.5515728223606021  1.0000
  O   O10       1.0  0.9088201141049295  0.6863006210769784  0.7450723633808519  1.0000
  O   O11       1.0  0.6910056568825576  0.6241685245174562  0.5120655727700185  1.0000
  O   O12       1.0  0.2999658270761062  0.9933627458647121  0.46467519509772454  1.0000
  O   O13       1.0  0.556086091413478  0.031594560779939225  0.10170493341069978  1.0000
  O   O14       1.0  0.6199243818237493  0.46052173126606755  0.1386437926238671  1.0000
data_image122
_chemical_formula_structural       V8O14
_chemical_formula_sum              "V8 O14"
_cell_length_a       5.550582121701734
_cell_length_b       6.786413640792483
_cell_length_c       6.98693040473207
_cell_angle_alpha    64.37373990390658
_cell_angle_beta     70.29505848782973
_cell_angle_gamma    75.17998095895898

_space_group_name_H-M_alt    "P 1"
_space_group_IT_number       1

loop_
  _space_group_symop_operation_xyz
  'x, y, z'

loop_
  _atom_site_type_symbol
  _atom_site_label
  _atom_site_symmetry_multiplicity
  _atom_site_fract_x
  _atom_site_fract_y
  _atom_site_fract_z
  _atom_site_occupancy
  V   V1        1.0  0.22352618088102294  0.13182854148290457  0.16300689257620898  1.0000
  V   V2        1.0  0.7871833411915133  0.38623687319821903  0.3874747849926043  1.0000
  V   V3        1.0  0.2653799395628912  0.6402750996041794  0.6751154846703475  1.0000
  V   V4        1.0  0.25075714618212724  0.6498105958146823  0.12272404736262527  1.0000
  V   V5        1.0  0.7310007971638398  0.3824442186461752  0.8262527126460919  1.0000
  V   V6        1.0  0.21770089623227212  0.14125535318696783  0.630240213852073  1.0000
  V   V7        1.0  0.7316510959560192  0.9254056965502395  0.274735261336776  1.0000
  V   V8        1.0  0.7565468294851806  0.8668838997078596  0.8055078186461643  1.0000
  O   O1        1.0  0.8164419812072103  0.987958842064147  0.509024082725769  1.0000
  O   O2        1.0  0.8649156932051776  0.15602714191608033  0.6930846361626033  1.0000
  O   O3        1.0  0.9343287174534102  0.7246224485563934  0.10645296291363882  1.0000
  O   O4        1.0  0.12706048819849772  0.40919808614892134  0.35105029611171573  1.0000
  O   O5        1.0  0.3900216166179653  0.8475158599239343  0.8655662527569483  1.0000
  O   O6        1.0  0.9573902825664347  0.182238378209512  0.9905749788906937  1.0000
  O   O7        1.0  0.3580784534431763  0.4358238401668122  0.9406375268935551  1.0000
  O   O8        1.0  0.2163123578559717  0.7718580012294309  0.31701582602462447  1.0000
  O   O9        1.0  0.36110878357523735  0.33048541833846795  0.6348588350817367  1.0000
  O   O10       1.0  0.9149338225438998  0.6095391492695237  0.7903548285384463  1.0000
  O   O11       1.0  0.6716401983812867  0.604917281844074  0.5358374198144388  1.0000
  O   O12       1.0  0.3283824096515521  0.9597071246533484  0.4743746542955878  1.0000
  O   O13       1.0  0.606690406207271  0.035329644444962886  0.9943252873560434  1.0000
  O   O14       1.0  0.5814767343651794  0.5325749852348187  0.162675062615217  1.0000
data_image123
_chemical_formula_structural       V8O14
_chemical_formula_sum              "V8 O14"
_cell_length_a       5.550582121701734
_cell_length_b       6.786413640792483
_cell_length_c       6.98693040473207
_cell_angle_alpha    64.37373990390658
_cell_angle_beta     70.29505848782973
_cell_angle_gamma    75.17998095895898

_space_group_name_H-M_alt    "P 1"
_space_group_IT_number       1

loop_
  _space_group_symop_operation_xyz
  'x, y, z'

loop_
  _atom_site_type_symbol
  _atom_site_label
  _atom_site_symmetry_multiplicity
  _atom_site_fract_x
  _atom_site_fract_y
  _atom_site_fract_z
  _atom_site_occupancy
  V   V1        1.0  0.22591895395794753  0.0501898936068506  0.20682151642429275  1.0000
  V   V2        1.0  0.7471180767930224  0.40082976325294284  0.4512069736005283  1.0000
  V   V3        1.0  0.2773763858890756  0.6081168660465877  0.6252831420966644  1.0000
  V   V4        1.0  0.2796406538153629  0.6472941549035502  0.05184930615696836  1.0000
  V   V5        1.0  0.7157939490907722  0.36668108069100136  0.9520876975053013  1.0000
  V   V6        1.0  0.2683197521749798  0.14288607752871507  0.5671438234264048  1.0000
  V   V7        1.0  0.796811325254355  0.9080285496469267  0.26840339637393973  1.0000
  V   V8        1.0  0.7345690879427963  0.916898775004629  0.8009742103310106  1.0000
  O   O1        1.0  0.6712186423856787  0.009302472785692895  0.5018898806144951  1.0000
  O   O2        1.0  0.8836941899016052  0.18160278178797593  0.6675805058303367  1.0000
  O   O3        1.0  0.9695602952912744  0.7751368504113565  0.9992653576984578  1.0000
  O   O4        1.0  0.13005587349214898  0.36232669351978264  0.33824992026606654  1.0000
  O   O5        1.0  0.35398206867973775  0.9589125275378205  0.8403298278420498  1.0000
  O   O6        1.0  0.004643414691718036  0.2094360135941096  0.05657073768279655  1.0000
  O   O7        1.0  0.3840045964782108  0.49265625983743455  0.8947739403555798  1.0000
  O   O8        1.0  0.1308814054005106  0.7873558196087325  0.2770982992267284  1.0000
  O   O9        1.0  0.39717923288008206  0.34076080898942046  0.6178995028962738  1.0000
  O   O10       1.0  0.8767306544338911  0.6330327862039622  0.7600416546308453  1.0000
  O   O11       1.0  0.679102846476986  0.6504774089490876  0.4954546366693615  1.0000
  O   O12       1.0  0.25521025432090216  0.9172951846608048  0.4750891485692905  1.0000
  O   O13       1.0  0.5803084417951843  0.03682865514707149  0.07980434957784553  1.0000
  O   O14       1.0  0.5657822882195045  0.5023257116712282  0.23099588347589822  1.0000
data_image124
_chemical_formula_structural       V8O14
_chemical_formula_sum              "V8 O14"
_cell_length_a       5.550582121701734
_cell_length_b       6.786413640792483
_cell_length_c       6.98693040473207
_cell_angle_alpha    64.37373990390658
_cell_angle_beta     70.29505848782973
_cell_angle_gamma    75.17998095895898

_space_group_name_H-M_alt    "P 1"
_space_group_IT_number       1

loop_
  _space_group_symop_operation_xyz
  'x, y, z'

loop_
  _atom_site_type_symbol
  _atom_site_label
  _atom_site_symmetry_multiplicity
  _atom_site_fract_x
  _atom_site_fract_y
  _atom_site_fract_z
  _atom_site_occupancy
  V   V1        1.0  0.24960387379059967  0.13099451941642912  0.2189450820007441  1.0000
  V   V2        1.0  0.7213440335232267  0.3379417496280974  0.3834271561358569  1.0000
  V   V3        1.0  0.2422980353867193  0.6150330829559828  0.6345515303425372  1.0000
  V   V4        1.0  0.26503754406136854  0.6592443699291607  0.09123559385118361  1.0000
  V   V5        1.0  0.7667746175898432  0.3423386156143216  0.8922643646998569  1.0000
  V   V6        1.0  0.27853871346465997  0.10112582058169459  0.656177485513621  1.0000
  V   V7        1.0  0.7653068821958865  0.8847535700408675  0.3004510561390106  1.0000
  V   V8        1.0  0.7840540740807016  0.9208566392370715  0.7924285084826812  1.0000
  O   O1        1.0  0.6475996363725526  0.0725970159226695  0.4511586734630495  1.0000
  O   O2        1.0  0.8471496434959688  0.26119053802201114  0.6221373671062096  1.0000
  O   O3        1.0  0.9396627315700484  0.7643053562206081  0.010605231409664073  1.0000
  O   O4        1.0  0.22025766121609933  0.34197087610565424  0.28431442456257916  1.0000
  O   O5        1.0  0.45259819641951665  0.8968349683519786  0.8784737528497253  1.0000
  O   O6        1.0  0.9830447103471115  0.16821659613253767  0.04571352165196398  1.0000
  O   O7        1.0  0.3371375205511344  0.5156957035928809  0.8822116314438205  1.0000
  O   O8        1.0  0.16195796439442434  0.8130303050661319  0.32851489734524547  1.0000
  O   O9        1.0  0.3975987372618093  0.3554804174826724  0.61548568212407  1.0000
  O   O10       1.0  0.885790211358114  0.649464417356589  0.7337834107838728  1.0000
  O   O11       1.0  0.5889885285623193  0.6761439219195156  0.48014902556972744  1.0000
  O   O12       1.0  0.158236202188447  0.9509848873216725  0.5600811606681376  1.0000
  O   O13       1.0  0.586218905150877  0.034086042720325505  0.08559812994716379  1.0000
  O   O14       1.0  0.6038573729700838  0.510715016117496  0.1049647667766137  1.0000
data_image125
_chemical_formula_structural       V8O14
_chemical_formula_sum              "V8 O14"
_cell_length_a       5.550582121701734
_cell_length_b       6.786413640792483
_cell_length_c       6.98693040473207
_cell_angle_alpha    64.37373990390658
_cell_angle_beta     70.29505848782973
_cell_angle_gamma    75.17998095895898

_space_group_name_H-M_alt    "P 1"
_space_group_IT_number       1

loop_
  _space_group_symop_operation_xyz
  'x, y, z'

loop_
  _atom_site_type_symbol
  _atom_site_label
  _atom_site_symmetry_multiplicity
  _atom_site_fract_x
  _atom_site_fract_y
  _atom_site_fract_z
  _atom_site_occupancy
  V   V1        1.0  0.16053178262428686  0.10971199139381939  0.2840438872283071  1.0000
  V   V2        1.0  0.7189714456573258  0.3944061413750677  0.39838582864118877  1.0000
  V   V3        1.0  0.2810906064316624  0.5885110728129235  0.5924185166041253  1.0000
  V   V4        1.0  0.3140347132738426  0.636703742235417  0.12268477274289845  1.0000
  V   V5        1.0  0.6884665376967949  0.363886209650706  0.9024556125716711  1.0000
  V   V6        1.0  0.2252312678937543  0.0685772602478467  0.8003964492524037  1.0000
  V   V7        1.0  0.804199720226496  0.9523652463671018  0.21683569457041663  1.0000
  V   V8        1.0  0.8730720793860051  0.8610820107409097  0.6882650217751016  1.0000
  O   O1        1.0  0.7799239116823196  0.08126086338486818  0.40186152869173863  1.0000
  O   O2        1.0  0.7240715563095442  0.28164789486753217  0.7135050059544313  1.0000
  O   O3        1.0  0.0006005693086776898  0.8022809775315211  0.0019243936842521236  1.0000
  O   O4        1.0  0.07106129968078367  0.41298030481646714  0.2386626922150298  1.0000
  O   O5        1.0  0.5186356652984774  0.9297666011130171  0.866056903892968  1.0000
  O   O6        1.0  0.01694138710126188  0.1826847424771612  0.027461177806836122  1.0000
  O   O7        1.0  0.3861874678150161  0.5059164501102126  0.8402107139501979  1.0000
  O   O8        1.0  0.1150376348835198  0.7669882163748906  0.3356123370082109  1.0000
  O   O9        1.0  0.33401686311286644  0.2907005727495198  0.5638652153648522  1.0000
  O   O10       1.0  0.9279893743095369  0.5559456084953169  0.7564137225985255  1.0000
  O   O11       1.0  0.6122418510832418  0.7045930324393115  0.3882187959560431  1.0000
  O   O12       1.0  0.20205616427324216  0.9632063533436017  0.5824803809795283  1.0000
  O   O13       1.0  0.4906178226403694  0.10707875400390508  0.1042889037214353  1.0000
  O   O14       1.0  0.6522208053135088  0.4763607873042801  0.14679718606578018  1.0000
data_image126
_chemical_formula_structural       V8O14
_chemical_formula_sum              "V8 O14"
_cell_length_a       5.550582121701734
_cell_length_b       6.786413640792483
_cell_length_c       6.98693040473207
_cell_angle_alpha    64.37373990390658
_cell_angle_beta     70.29505848782973
_cell_angle_gamma    75.17998095895898

_space_group_name_H-M_alt    "P 1"
_space_group_IT_number       1

loop_
  _space_group_symop_operation_xyz
  'x, y, z'

loop_
  _atom_site_type_symbol
  _atom_site_label
  _atom_site_symmetry_multiplicity
  _atom_site_fract_x
  _atom_site_fract_y
  _atom_site_fract_z
  _atom_site_occupancy
  V   V1        1.0  0.209649238076685  0.12988748415675094  0.1888830232795371  1.0000
  V   V2        1.0  0.6609531969611164  0.370946415772653  0.4727944002947859  1.0000
  V   V3        1.0  0.2517131576337339  0.6657416517224366  0.60715453890053  1.0000
  V   V4        1.0  0.27998962776093445  0.6025112598982599  0.08284415009033916  1.0000
  V   V5        1.0  0.7417823831100409  0.37770942209869107  0.9196493424030923  1.0000
  V   V6        1.0  0.19245988914520423  0.08704612579302663  0.7114292507472452  1.0000
  V   V7        1.0  0.8543632543815984  0.881221082339239  0.2525835330251536  1.0000
  V   V8        1.0  0.772656426321673  0.9083678985415887  0.7667082371532321  1.0000
  O   O1        1.0  0.9026754034790863  0.05273821971467389  0.44493606855542395  1.0000
  O   O2        1.0  0.8227654529807376  0.20029288361026182  0.7052908392737176  1.0000
  O   O3        1.0  0.9904524744521  0.8308544635644582  0.9436021401943474  1.0000
  O   O4        1.0  0.05109012389855223  0.3661428149883068  0.28230930317142827  1.0000
  O   O5        1.0  0.42977858613748426  0.9011404459707578  0.8852657400532158  1.0000
  O   O6        1.0  0.0595698225605429  0.17151720183092595  0.9868322181409488  1.0000
  O   O7        1.0  0.36434754401963276  0.43378642967279185  0.9176830985823028  1.0000
  O   O8        1.0  0.1708318214477837  0.7629046459351951  0.3189191956823444  1.0000
  O   O9        1.0  0.33370732606667575  0.38227718683836165  0.5952052464551227  1.0000
  O   O10       1.0  0.8899887016750198  0.6209989388765392  0.7343486021080298  1.0000
  O   O11       1.0  0.6160834469793279  0.6569666996818007  0.38612788475858834  1.0000
  O   O12       1.0  0.36768493585676676  0.9553381536375269  0.4746764979620529  1.0000
  O   O13       1.0  0.5723196970562093  0.08879417635443052  0.11932425913787471  1.0000
  O   O14       1.0  0.5872129767542524  0.48449455909051864  0.17347036309135708  1.0000
data_image127
_chemical_formula_structural       V8O14
_chemical_formula_sum              "V8 O14"
_cell_length_a       5.550582121701734
_cell_length_b       6.786413640792483
_cell_length_c       6.98693040473207
_cell_angle_alpha    64.37373990390658
_cell_angle_beta     70.29505848782973
_cell_angle_gamma    75.17998095895898

_space_group_name_H-M_alt    "P 1"
_space_group_IT_number       1

loop_
  _space_group_symop_operation_xyz
  'x, y, z'

loop_
  _atom_site_type_symbol
  _atom_site_label
  _atom_site_symmetry_multiplicity
  _atom_site_fract_x
  _atom_site_fract_y
  _atom_site_fract_z
  _atom_site_occupancy
  V   V1        1.0  0.23025408706189646  0.06531722166241469  0.2608852280049468  1.0000
  V   V2        1.0  0.7715713916942901  0.4069602505083578  0.3568890439171006  1.0000
  V   V3        1.0  0.2853397571604153  0.6315407673032829  0.5798678771166618  1.0000
  V   V4        1.0  0.29825463011487424  0.6115479623876874  0.08516716252682491  1.0000
  V   V5        1.0  0.6905946080280205  0.37961153600707925  0.8731211539301255  1.0000
  V   V6        1.0  0.2004957465782708  0.1406343486481297  0.7512586501372484  1.0000
  V   V7        1.0  0.7916866129423944  0.9054638163358365  0.30293678409416486  1.0000
  V   V8        1.0  0.7492007727679566  0.9184901840651527  0.8028600289354925  1.0000
  O   O1        1.0  0.7729861944679285  0.08366000394233894  0.4395281431912857  1.0000
  O   O2        1.0  0.8405424796426703  0.21733922762477675  0.6869026359915898  1.0000
  O   O3        1.0  0.9843359894097202  0.7344666885322504  0.04380557286808551  1.0000
  O   O4        1.0  0.14574087185783713  0.3302086822650903  0.2643837204941628  1.0000
  O   O5        1.0  0.42210278373984744  0.900066361692722  0.8792145831738484  1.0000
  O   O6        1.0  0.9937200897440077  0.14759533181728463  0.04275825355858898  1.0000
  O   O7        1.0  0.35707989023831527  0.45327954749009636  0.867597540364472  1.0000
  O   O8        1.0  0.12087790306579475  0.7982933753901623  0.29457439614243924  1.0000
  O   O9        1.0  0.336094463075212  0.3589645386712196  0.5435202192507139  1.0000
  O   O10       1.0  0.848448895299278  0.6650462419107981  0.6952876831258293  1.0000
  O   O11       1.0  0.6727099729298066  0.6364352177373755  0.4093029103409527  1.0000
  O   O12       1.0  0.25779017643642954  0.9207955679318454  0.5678066242110567  1.0000
  O   O13       1.0  0.6070723331132944  0.01277837085034193  0.09445086952195114  1.0000
  O   O14       1.0  0.6270598426147196  0.5334705610568934  0.09831316955293593  1.0000
data_image128
_chemical_formula_structural       V8O14
_chemical_formula_sum              "V8 O14"
_cell_length_a       5.550582121701734
_cell_length_b       6.786413640792483
_cell_length_c       6.98693040473207
_cell_angle_alpha    64.37373990390658
_cell_angle_beta     70.29505848782973
_cell_angle_gamma    75.17998095895898

_space_group_name_H-M_alt    "P 1"
_space_group_IT_number       1

loop_
  _space_group_symop_operation_xyz
  'x, y, z'

loop_
  _atom_site_type_symbol
  _atom_site_label
  _atom_site_symmetry_multiplicity
  _atom_site_fract_x
  _atom_site_fract_y
  _atom_site_fract_z
  _atom_site_occupancy
  V   V1        1.0  0.20140642154369923  0.13614607068452703  0.23849751404748748  1.0000
  V   V2        1.0  0.6963276914019983  0.33807985880261227  0.3651287026577611  1.0000
  V   V3        1.0  0.3326712033783886  0.582935779208395  0.6157603196917512  1.0000
  V   V4        1.0  0.2607938896075929  0.6777839466607571  0.10047424589585871  1.0000
  V   V5        1.0  0.7036180865138298  0.3549724766881162  0.8994335975301663  1.0000
  V   V6        1.0  0.15064683554460853  0.09684275856765372  0.7506457249368093  1.0000
  V   V7        1.0  0.8483402314006226  0.9054307326808911  0.2486092543956655  1.0000
  V   V8        1.0  0.8437793180912495  0.8960430944992367  0.7389494039710619  1.0000
  O   O1        1.0  0.7961215089149782  0.07294951600635605  0.4290798486436325  1.0000
  O   O2        1.0  0.781075317265829  0.19191386704404528  0.7345475151127848  1.0000
  O   O3        1.0  0.9246935434146105  0.8249662381264113  0.9930302968259496  1.0000
  O   O4        1.0  0.05006249422606849  0.4040131483877852  0.31372230138025764  1.0000
  O   O5        1.0  0.4518972469193912  0.8983625808742771  0.8403021721844978  1.0000
  O   O6        1.0  0.0344692214484958  0.17450874445520498  0.013920668151277913  1.0000
  O   O7        1.0  0.3893274091374046  0.462868314454365  0.9056600707386632  1.0000
  O   O8        1.0  0.1788383193570058  0.8386178047226078  0.2682580914013998  1.0000
  O   O9        1.0  0.36326144928960225  0.323257468685966  0.605135430218719  1.0000
  O   O10       1.0  0.9332153368439766  0.5628889785769987  0.7294936604531853  1.0000
  O   O11       1.0  0.6469124154458885  0.6921778980224929  0.42688581417576466  1.0000
  O   O12       1.0  0.2481969184343358  0.9445532445820567  0.5537991452526767  1.0000
  O   O13       1.0  0.5409649230203543  0.11677492903712802  0.1543908430751146  1.0000
  O   O14       1.0  0.5955627467864046  0.5132517074981701  0.1359859560783928  1.0000
data_image129
_chemical_formula_structural       V8O14
_chemical_formula_sum              "V8 O14"
_cell_length_a       5.550582121701734
_cell_length_b       6.786413640792483
_cell_length_c       6.98693040473207
_cell_angle_alpha    64.37373990390658
_cell_angle_beta     70.29505848782973
_cell_angle_gamma    75.17998095895898

_space_group_name_H-M_alt    "P 1"
_space_group_IT_number       1

loop_
  _space_group_symop_operation_xyz
  'x, y, z'

loop_
  _atom_site_type_symbol
  _atom_site_label
  _atom_site_symmetry_multiplicity
  _atom_site_fract_x
  _atom_site_fract_y
  _atom_site_fract_z
  _atom_site_occupancy
  V   V1        1.0  0.24463655756970845  0.13699677775371846  0.25351842595361507  1.0000
  V   V2        1.0  0.7152912704827277  0.3972352529031948  0.3964752752544044  1.0000
  V   V3        1.0  0.27622542399156713  0.6643159090201777  0.6045343479889064  1.0000
  V   V4        1.0  0.2530155769812589  0.6070614877026572  0.09326045474754474  1.0000
  V   V5        1.0  0.7267667720851209  0.3329168404894712  0.86921164924531  1.0000
  V   V6        1.0  0.2252502110688671  0.11764494725398558  0.7413575476026992  1.0000
  V   V7        1.0  0.8318815692615927  0.8965774312257144  0.2610239756523195  1.0000
  V   V8        1.0  0.7911350933600241  0.8687419870567891  0.7799980423790758  1.0000
  O   O1        1.0  0.7579767508910671  0.07704142913417929  0.430471226600905  1.0000
  O   O2        1.0  0.8469932765525511  0.18753970923318314  0.673625739629943  1.0000
  O   O3        1.0  0.9676592216587815  0.7401454566047554  0.025606510958467332  1.0000
  O   O4        1.0  0.08436321605710767  0.39916030596380614  0.30124229303013617  1.0000
  O   O5        1.0  0.4464787617357919  0.8920119827443144  0.8966602491718154  1.0000
  O   O6        1.0  0.01296702410049071  0.21804900505091784  0.9754424447763861  1.0000
  O   O7        1.0  0.33420643523876536  0.4777409684355845  0.8850712933912845  1.0000
  O   O8        1.0  0.12994386576432948  0.7519447734817992  0.3220843041635337  1.0000
  O   O9        1.0  0.3871778479747197  0.37870095486718736  0.5173871679081959  1.0000
  O   O10       1.0  0.8774227093674348  0.6047301466936016  0.7468272889773643  1.0000
  O   O11       1.0  0.6228856713100713  0.6476112870355705  0.4543772449704046  1.0000
  O   O12       1.0  0.2473893973839996  0.0050933642109980415  0.5246752620634021  1.0000
  O   O13       1.0  0.5550988262699035  0.07505221694691268  0.07660132613220327  1.0000
  O   O14       1.0  0.5890935932954623  0.4604700238039368  0.13239155753389234  1.0000
data_image130
_chemical_formula_structural       V8O14
_chemical_formula_sum              "V8 O14"
_cell_length_a       5.550582121701734
_cell_length_b       6.786413640792483
_cell_length_c       6.98693040473207
_cell_angle_alpha    64.37373990390658
_cell_angle_beta     70.29505848782973
_cell_angle_gamma    75.17998095895898

_space_group_name_H-M_alt    "P 1"
_space_group_IT_number       1

loop_
  _space_group_symop_operation_xyz
  'x, y, z'

loop_
  _atom_site_type_symbol
  _atom_site_label
  _atom_site_symmetry_multiplicity
  _atom_site_fract_x
  _atom_site_fract_y
  _atom_site_fract_z
  _atom_site_occupancy
  V   V1        1.0  0.20515457204181037  0.09170855434187689  0.2523748395910421  1.0000
  V   V2        1.0  0.7159819160500319  0.3543567823745115  0.4138141042480107  1.0000
  V   V3        1.0  0.26559000177134134  0.6033811253096584  0.5813056872383651  1.0000
  V   V4        1.0  0.27466850373023843  0.6516194836421222  0.10113301129586916  1.0000
  V   V5        1.0  0.750860752733351  0.3612618943912461  0.9519209928634829  1.0000
  V   V6        1.0  0.11471327729209345  0.11428985481631446  0.7313504614939608  1.0000
  V   V7        1.0  0.7868853174816923  0.8604916318331197  0.28198537893713194  1.0000
  V   V8        1.0  0.8136302012412453  0.8843628489022395  0.7370543227941897  1.0000
  O   O1        1.0  0.836161791580609  0.05906082679457942  0.4063069905377152  1.0000
  O   O2        1.0  0.8112087958523898  0.22323585246860958  0.6945221597662741  1.0000
  O   O3        1.0  0.9956148105085127  0.8339680285605805  0.9981261605219456  1.0000
  O   O4        1.0  0.08123330049144487  0.42434709719593516  0.29041352690547123  1.0000
  O   O5        1.0  0.4797676125661697  0.9027554252707433  0.8278704289616395  1.0000
  O   O6        1.0  0.09825761905228404  0.259138418250208  0.9539346565623443  1.0000
  O   O7        1.0  0.4534038336681075  0.5470212876495493  0.8437461937547018  1.0000
  O   O8        1.0  0.19338643283251541  0.791241118819402  0.30008366411268506  1.0000
  O   O9        1.0  0.3992872952469161  0.3170843895626872  0.5110418660841709  1.0000
  O   O10       1.0  0.9219560416139845  0.6512056630887998  0.66161943225481  1.0000
  O   O11       1.0  0.6016129248424494  0.633580842257275  0.4333148608890668  1.0000
  O   O12       1.0  0.1953246628412973  0.9209605677744249  0.577677263626551  1.0000
  O   O13       1.0  0.573718457878606  0.11344707482096006  0.18069998456916858  1.0000
  O   O14       1.0  0.6496519768554634  0.5584593463491555  0.12122480514518463  1.0000
data_image131
_chemical_formula_structural       V8O14
_chemical_formula_sum              "V8 O14"
_cell_length_a       5.550582121701734
_cell_length_b       6.786413640792483
_cell_length_c       6.98693040473207
_cell_angle_alpha    64.37373990390658
_cell_angle_beta     70.29505848782973
_cell_angle_gamma    75.17998095895898

_space_group_name_H-M_alt    "P 1"
_space_group_IT_number       1

loop_
  _space_group_symop_operation_xyz
  'x, y, z'

loop_
  _atom_site_type_symbol
  _atom_site_label
  _atom_site_symmetry_multiplicity
  _atom_site_fract_x
  _atom_site_fract_y
  _atom_site_fract_z
  _atom_site_occupancy
  V   V1        1.0  0.19816084492248978  0.06938436581993836  0.25024414005690515  1.0000
  V   V2        1.0  0.6976293359417569  0.40438311960207085  0.4033841877717433  1.0000
  V   V3        1.0  0.2614482392774689  0.6343196707835692  0.6202960552776006  1.0000
  V   V4        1.0  0.2500465955660378  0.6239626059175853  0.08515342152011604  1.0000
  V   V5        1.0  0.7460259207885142  0.3346257333171674  0.9044791728256564  1.0000
  V   V6        1.0  0.25965916581982884  0.1010339359182734  0.7156288582779814  1.0000
  V   V7        1.0  0.7840153957727132  0.932101387000518  0.24979133013230215  1.0000
  V   V8        1.0  0.8228486838616662  0.9322906469263672  0.7429313193049639  1.0000
  O   O1        1.0  0.7315130311778726  0.08962933702279864  0.4707273628985459  1.0000
  O   O2        1.0  0.865400226313523  0.25963045160243964  0.6307670132642498  1.0000
  O   O3        1.0  0.9598847775928212  0.7632680822703977  0.028402280194265606  1.0000
  O   O4        1.0  0.07623268119364639  0.3689263150242935  0.26154849840768174  1.0000
  O   O5        1.0  0.42782114831416435  0.8957654582502546  0.9130613599326577  1.0000
  O   O6        1.0  0.04616559994115869  0.09910364481054734  0.023971856313018052  1.0000
  O   O7        1.0  0.4024955518071348  0.514084066497663  0.8449156958699178  1.0000
  O   O8        1.0  0.14487668110684648  0.7417649399678453  0.3581417721916457  1.0000
  O   O9        1.0  0.3298483195382904  0.344496548582747  0.5660109577151438  1.0000
  O   O10       1.0  0.8716079992253168  0.6420204290848078  0.7679942409997371  1.0000
  O   O11       1.0  0.6700487059143371  0.6702083440113782  0.4270149731529372  1.0000
  O   O12       1.0  0.30740803144027984  0.9451877753165401  0.5461357524241741  1.0000
  O   O13       1.0  0.5455236357682058  0.09624810453745093  0.05334031562219309  1.0000
  O   O14       1.0  0.6105293392009691  0.45722463060934027  0.15546269106589888  1.0000
data_image132
_chemical_formula_structural       V8O14
_chemical_formula_sum              "V8 O14"
_cell_length_a       5.550582121701734
_cell_length_b       6.786413640792483
_cell_length_c       6.98693040473207
_cell_angle_alpha    64.37373990390658
_cell_angle_beta     70.29505848782973
_cell_angle_gamma    75.17998095895898

_space_group_name_H-M_alt    "P 1"
_space_group_IT_number       1

loop_
  _space_group_symop_operation_xyz
  'x, y, z'

loop_
  _atom_site_type_symbol
  _atom_site_label
  _atom_site_symmetry_multiplicity
  _atom_site_fract_x
  _atom_site_fract_y
  _atom_site_fract_z
  _atom_site_occupancy
  V   V1        1.0  0.18667380137208894  0.08331476818437397  0.23629430315447483  1.0000
  V   V2        1.0  0.7464649138996752  0.3483837855067572  0.4109959262379558  1.0000
  V   V3        1.0  0.2850290681340036  0.5793955382700348  0.6067107392850273  1.0000
  V   V4        1.0  0.27831956175282224  0.6539462835262138  0.030372324428814754  1.0000
  V   V5        1.0  0.7351253171989991  0.3814707141729447  0.9259582262409352  1.0000
  V   V6        1.0  0.1749513847095427  0.09351133703667558  0.7550190281274534  1.0000
  V   V7        1.0  0.8255446252194684  0.9052751340079113  0.25238142855178797  1.0000
  V   V8        1.0  0.7964998121997588  0.9294580351124775  0.7395642550260202  1.0000
  O   O1        1.0  0.7431439461591042  0.03965911042288605  0.4521119069600887  1.0000
  O   O2        1.0  0.7816570356899806  0.2746694273215714  0.7163705257692918  1.0000
  O   O3        1.0  0.9402584858101279  0.8245685098063288  0.9831602479266847  1.0000
  O   O4        1.0  0.129693782550076  0.4141156997851072  0.24002469469455584  1.0000
  O   O5        1.0  0.44568879380651305  0.9463731245098348  0.9380348907461421  1.0000
  O   O6        1.0  0.031560291983723184  0.1300488801245222  0.035028312877878644  1.0000
  O   O7        1.0  0.4012506970347039  0.5673555184371203  0.8341117986364943  1.0000
  O   O8        1.0  0.1615369039655937  0.7083887017021068  0.3641795730040258  1.0000
  O   O9        1.0  0.356503231314547  0.29821861503477926  0.5508893196401146  1.0000
  O   O10       1.0  0.874011662421098  0.6675398123500449  0.7319640145303998  1.0000
  O   O11       1.0  0.7018805507489586  0.6351831158384618  0.368588031882828  1.0000
  O   O12       1.0  0.2553496617888088  0.9323972493366255  0.5774122984185314  1.0000
  O   O13       1.0  0.5356479495267836  0.10321789412267338  0.16122788267699276  1.0000
  O   O14       1.0  0.6097253949897139  0.5276603879700359  0.1307972928358903  1.0000
data_image133
_chemical_formula_structural       V8O14
_chemical_formula_sum              "V8 O14"
_cell_length_a       5.550582121701734
_cell_length_b       6.786413640792483
_cell_length_c       6.98693040473207
_cell_angle_alpha    64.37373990390658
_cell_angle_beta     70.29505848782973
_cell_angle_gamma    75.17998095895898

_space_group_name_H-M_alt    "P 1"
_space_group_IT_number       1

loop_
  _space_group_symop_operation_xyz
  'x, y, z'

loop_
  _atom_site_type_symbol
  _atom_site_label
  _atom_site_symmetry_multiplicity
  _atom_site_fract_x
  _atom_site_fract_y
  _atom_site_fract_z
  _atom_site_occupancy
  V   V1        1.0  0.1585162376900823  0.11897326833504361  0.24284479735493603  1.0000
  V   V2        1.0  0.6880898473558585  0.39430495595353177  0.406880214312746  1.0000
  V   V3        1.0  0.31754920213127386  0.6202605737241897  0.5934393126140394  1.0000
  V   V4        1.0  0.29361087438962175  0.5903244521555858  0.11604483900601234  1.0000
  V   V5        1.0  0.7285171244579735  0.4025821494758436  0.8639191115802977  1.0000
  V   V6        1.0  0.1606890739022845  0.09056741929416809  0.7684840130314943  1.0000
  V   V7        1.0  0.859277748933085  0.8888107728851916  0.25548297269842035  1.0000
  V   V8        1.0  0.7943941188394306  0.9320727300386332  0.718830816434559  1.0000
  O   O1        1.0  0.7891986512149793  0.07816515967933128  0.42335924395501445  1.0000
  O   O2        1.0  0.8402006519557335  0.19624815510986585  0.7016878474753536  1.0000
  O   O3        1.0  0.977503894558638  0.7695477810476532  0.03924192093643586  1.0000
  O   O4        1.0  0.08414299651655893  0.32822813519280625  0.32006678269052713  1.0000
  O   O5        1.0  0.4949154822525287  0.8950828771554417  0.8318671316662357  1.0000
  O   O6        1.0  0.02645481610402281  0.15287975418323219  0.012904097533223134  1.0000
  O   O7        1.0  0.3150120403449602  0.5284027698998345  0.889783037942989  1.0000
  O   O8        1.0  0.22884430942274936  0.7621937650812471  0.2659360143951613  1.0000
  O   O9        1.0  0.387812350094177  0.30502528717973065  0.6205881300276648  1.0000
  O   O10       1.0  0.9138632178137819  0.6621819153353627  0.6825941010162428  1.0000
  O   O11       1.0  0.6492096945216073  0.6281649421736151  0.481144489136691  1.0000
  O   O12       1.0  0.2202419408127133  0.941699388005779  0.5603908332450307  1.0000
  O   O13       1.0  0.5137568749833815  0.1458431412373246  0.0894042101199037  1.0000
  O   O14       1.0  0.6151355699883133  0.4788316243131112  0.14029467585415584  1.0000
data_image134
_chemical_formula_structural       V8O14
_chemical_formula_sum              "V8 O14"
_cell_length_a       5.550582121701734
_cell_length_b       6.786413640792483
_cell_length_c       6.98693040473207
_cell_angle_alpha    64.37373990390658
_cell_angle_beta     70.29505848782973
_cell_angle_gamma    75.17998095895898

_space_group_name_H-M_alt    "P 1"
_space_group_IT_number       1

loop_
  _space_group_symop_operation_xyz
  'x, y, z'

loop_
  _atom_site_type_symbol
  _atom_site_label
  _atom_site_symmetry_multiplicity
  _atom_site_fract_x
  _atom_site_fract_y
  _atom_site_fract_z
  _atom_site_occupancy
  V   V1        1.0  0.1719996970342137  0.12761268962141745  0.25231258800810463  1.0000
  V   V2        1.0  0.7176719108726441  0.37102129849142296  0.3983464982669431  1.0000
  V   V3        1.0  0.25324450908183543  0.6232594198928896  0.6033956942120006  1.0000
  V   V4        1.0  0.275060840345348  0.6610620249578091  0.09031089600014082  1.0000
  V   V5        1.0  0.693467125476571  0.3368610508136653  0.9229178647172892  1.0000
  V   V6        1.0  0.23153938956136838  0.10166035658588897  0.7629436622174759  1.0000
  V   V7        1.0  0.7832407415200003  0.8954695514467508  0.264860345983925  1.0000
  V   V8        1.0  0.8645112707498908  0.8846193834719527  0.7342146816490203  1.0000
  O   O1        1.0  0.8107438813798425  0.056020362411809195  0.4357721045435555  1.0000
  O   O2        1.0  0.8136697167783279  0.20125510054339202  0.6989280555151243  1.0000
  O   O3        1.0  0.9835969681765225  0.8426943069604522  0.9533892216603874  1.0000
  O   O4        1.0  0.06881598864169895  0.40018720615154507  0.29453852186614254  1.0000
  O   O5        1.0  0.5198639338116479  0.9098567662982775  0.8388977371428603  1.0000
  O   O6        1.0  0.06355935966779543  0.2567400209558119  0.9844869127435251  1.0000
  O   O7        1.0  0.3697047186056244  0.5496069055461924  0.8379682609850134  1.0000
  O   O8        1.0  0.17561783985660975  0.7753569270317057  0.29705558353452644  1.0000
  O   O9        1.0  0.3888544818896737  0.35407480349929593  0.5805062663239454  1.0000
  O   O10       1.0  0.9335543923058155  0.6159119292421553  0.6787578825695258  1.0000
  O   O11       1.0  0.6177919451691363  0.618236764548663  0.4406418314326381  1.0000
  O   O12       1.0  0.25690437112703657  0.910573379572752  0.5550498376560306  1.0000
  O   O13       1.0  0.48881779519052654  0.047205190504126825  0.11106352956029653  1.0000
  O   O14       1.0  0.592796726784836  0.44915686134430916  0.1454654088030969  1.0000
data_image135
_chemical_formula_structural       V8O14
_chemical_formula_sum              "V8 O14"
_cell_length_a       5.550582121701734
_cell_length_b       6.786413640792483
_cell_length_c       6.98693040473207
_cell_angle_alpha    64.37373990390658
_cell_angle_beta     70.29505848782973
_cell_angle_gamma    75.17998095895898

_space_group_name_H-M_alt    "P 1"
_space_group_IT_number       1

loop_
  _space_group_symop_operation_xyz
  'x, y, z'

loop_
  _atom_site_type_symbol
  _atom_site_label
  _atom_site_symmetry_multiplicity
  _atom_site_fract_x
  _atom_site_fract_y
  _atom_site_fract_z
  _atom_site_occupancy
  V   V1        1.0  0.16852134536947896  0.0769252823334733  0.25213064242648775  1.0000
  V   V2        1.0  0.7108508504087483  0.35800437567438487  0.4268474501652578  1.0000
  V   V3        1.0  0.25365954269346797  0.63995346887029  0.5846144551071782  1.0000
  V   V4        1.0  0.3206237425115724  0.6492115496205852  0.07407087306287018  1.0000
  V   V5        1.0  0.7240131293131425  0.3769712924634488  0.91142218940923  1.0000
  V   V6        1.0  0.1949795038913509  0.10412155446664471  0.73899489072633  1.0000
  V   V7        1.0  0.8232119571078448  0.8660078296734611  0.23439207591347563  1.0000
  V   V8        1.0  0.8003098254546532  0.895948093582292  0.7590750451047847  1.0000
  O   O1        1.0  0.7885596228777855  0.023592560235453752  0.42094123423638946  1.0000
  O   O2        1.0  0.8414124263612706  0.1835071176268858  0.7182279584812312  1.0000
  O   O3        1.0  0.9849091309538128  0.8428091696906636  0.9952310885542436  1.0000
  O   O4        1.0  0.053456360440553505  0.3941247625915481  0.3280351133256065  1.0000
  O   O5        1.0  0.46750050577349384  0.920984879544134  0.9170739881678867  1.0000
  O   O6        1.0  0.005595686075851494  0.24935873778481982  0.005843968759540747  1.0000
  O   O7        1.0  0.3466293714876985  0.5073913406183659  0.887519335427396  1.0000
  O   O8        1.0  0.17541345057616878  0.7850739023010154  0.2811334925137251  1.0000
  O   O9        1.0  0.34845489337321467  0.3558559272924443  0.562988086971539  1.0000
  O   O10       1.0  0.8920643944617946  0.6344940892329402  0.7015738685062991  1.0000
  O   O11       1.0  0.6477721135049753  0.6416743154330583  0.4250344983241735  1.0000
  O   O12       1.0  0.28388157472496206  0.945961065884347  0.502273514701371  1.0000
  O   O13       1.0  0.5764391559883469  0.11501727995360564  0.11890065558550218  1.0000
  O   O14       1.0  0.6558330733847135  0.5063548393735336  0.14325140732604683  1.0000
data_image136
_chemical_formula_structural       V8O14
_chemical_formula_sum              "V8 O14"
_cell_length_a       5.550582121701734
_cell_length_b       6.786413640792483
_cell_length_c       6.98693040473207
_cell_angle_alpha    64.37373990390658
_cell_angle_beta     70.29505848782973
_cell_angle_gamma    75.17998095895898

_space_group_name_H-M_alt    "P 1"
_space_group_IT_number       1

loop_
  _space_group_symop_operation_xyz
  'x, y, z'

loop_
  _atom_site_type_symbol
  _atom_site_label
  _atom_site_symmetry_multiplicity
  _atom_site_fract_x
  _atom_site_fract_y
  _atom_site_fract_z
  _atom_site_occupancy
  V   V1        1.0  0.16119857962274553  0.06889796966730277  0.2622923639532506  1.0000
  V   V2        1.0  0.7614692313558838  0.4107671245112043  0.3786901525758214  1.0000
  V   V3        1.0  0.29928446737013964  0.6271197780483825  0.6125622390127291  1.0000
  V   V4        1.0  0.30503806538213196  0.6567616220075934  0.08069028417077333  1.0000
  V   V5        1.0  0.6930135504993784  0.3617784996201105  0.9372436973694888  1.0000
  V   V6        1.0  0.18259723112057777  0.13262208598054395  0.7291622548949095  1.0000
  V   V7        1.0  0.8127536968127809  0.9051680911785507  0.22960390572917594  1.0000
  V   V8        1.0  0.8177274211615032  0.8759100414558711  0.7363287685859016  1.0000
  O   O1        1.0  0.7623810889272585  0.034699471356781586  0.47745260909462406  1.0000
  O   O2        1.0  0.8672942047891179  0.2321636932776637  0.6603139276826233  1.0000
  O   O3        1.0  0.936176029532123  0.74592073017949  0.007536836406093705  1.0000
  O   O4        1.0  0.10805265277525658  0.37862614085820456  0.3060413268368284  1.0000
  O   O5        1.0  0.4602283958493865  0.884806534600395  0.8875791120302347  1.0000
  O   O6        1.0  0.9905197151702546  0.14929779070429988  0.02938404969151652  1.0000
  O   O7        1.0  0.34919497624382057  0.5235339264553399  0.8765368938972614  1.0000
  O   O8        1.0  0.16269784766102097  0.7444041149365384  0.31841135833892964  1.0000
  O   O9        1.0  0.37659653368093576  0.3707800762146807  0.5164377491873815  1.0000
  O   O10       1.0  0.9144215679518599  0.5650183472869857  0.7627121735592144  1.0000
  O   O11       1.0  0.6721246212600956  0.690733678227187  0.42912522281016213  1.0000
  O   O12       1.0  0.22501395954934836  0.928657071378055  0.5716280165460039  1.0000
  O   O13       1.0  0.5205345931230201  0.09184590364928104  0.099057772815214  1.0000
  O   O14       1.0  0.6003294233712223  0.5380260422278281  0.11468863249652145  1.0000
data_image137
_chemical_formula_structural       V8O14
_chemical_formula_sum              "V8 O14"
_cell_length_a       5.550582121701734
_cell_length_b       6.786413640792483
_cell_length_c       6.98693040473207
_cell_angle_alpha    64.37373990390658
_cell_angle_beta     70.29505848782973
_cell_angle_gamma    75.17998095895898

_space_group_name_H-M_alt    "P 1"
_space_group_IT_number       1

loop_
  _space_group_symop_operation_xyz
  'x, y, z'

loop_
  _atom_site_type_symbol
  _atom_site_label
  _atom_site_symmetry_multiplicity
  _atom_site_fract_x
  _atom_site_fract_y
  _atom_site_fract_z
  _atom_site_occupancy
  V   V1        1.0  0.2081505902683533  0.10073376464226469  0.221180402103327  1.0000
  V   V2        1.0  0.7195820944601533  0.3976505117264184  0.4015764515979485  1.0000
  V   V3        1.0  0.27373273212498356  0.6379874783596109  0.55227489815953  1.0000
  V   V4        1.0  0.2605356678406198  0.5954883858579463  0.07866494875444559  1.0000
  V   V5        1.0  0.74421537607781  0.38413180964651206  0.9444761920908452  1.0000
  V   V6        1.0  0.2286674239385743  0.051354485866097616  0.7247565097262769  1.0000
  V   V7        1.0  0.8134780438530549  0.9399154682489979  0.2701001473567701  1.0000
  V   V8        1.0  0.849680129215336  0.9091685562613864  0.7697799368225064  1.0000
  O   O1        1.0  0.6798543569081026  0.9854215751833619  0.5203529287014441  1.0000
  O   O2        1.0  0.8362068370555933  0.20298635007821642  0.7777772471162818  1.0000
  O   O3        1.0  0.9343966310798354  0.7516622999488808  0.032385032005508796  1.0000
  O   O4        1.0  0.1332436591419543  0.3395537622923617  0.2630400706481665  1.0000
  O   O5        1.0  0.4247888108025629  0.9429445783362319  0.8683813891870454  1.0000
  O   O6        1.0  0.10371158949572931  0.1786974540600647  0.9932966889190901  1.0000
  O   O7        1.0  0.38154011572281926  0.5875233547677258  0.7943001925793864  1.0000
  O   O8        1.0  0.109450106789541  0.7574831015117806  0.31187208195911675  1.0000
  O   O9        1.0  0.3572183664994396  0.3582024980510523  0.5811104360681238  1.0000
  O   O10       1.0  0.878633088451717  0.6041702589010828  0.741479045295753  1.0000
  O   O11       1.0  0.6050065309142343  0.6822051761479018  0.3847328351641197  1.0000
  O   O12       1.0  0.1636600675705333  0.9251183827000451  0.521289300555422  1.0000
  O   O13       1.0  0.5488253766233878  0.14242105811035724  0.11739364624183513  1.0000
  O   O14       1.0  0.5885356403840661  0.4942998187773689  0.16313310335818307  1.0000
data_image138
_chemical_formula_structural       V8O14
_chemical_formula_sum              "V8 O14"
_cell_length_a       5.550582121701734
_cell_length_b       6.786413640792483
_cell_length_c       6.98693040473207
_cell_angle_alpha    64.37373990390658
_cell_angle_beta     70.29505848782973
_cell_angle_gamma    75.17998095895898

_space_group_name_H-M_alt    "P 1"
_space_group_IT_number       1

loop_
  _space_group_symop_operation_xyz
  'x, y, z'

loop_
  _atom_site_type_symbol
  _atom_site_label
  _atom_site_symmetry_multiplicity
  _atom_site_fract_x
  _atom_site_fract_y
  _atom_site_fract_z
  _atom_site_occupancy
  V   V1        1.0  0.21173237816872467  0.10939537415369285  0.20809709638204282  1.0000
  V   V2        1.0  0.7237307277552404  0.3528673049621225  0.42033898155078336  1.0000
  V   V3        1.0  0.22078919404050537  0.681320737979459  0.6084032724690265  1.0000
  V   V4        1.0  0.2783665396596087  0.628055190717575  0.11928585510687757  1.0000
  V   V5        1.0  0.7280564758810403  0.36538798350645985  0.8886407830866545  1.0000
  V   V6        1.0  0.19344548749994323  0.10057384832548742  0.7190095154210956  1.0000
  V   V7        1.0  0.8411072063785648  0.892177074298362  0.22367658853433522  1.0000
  V   V8        1.0  0.7783368630444213  0.9136644577821591  0.7644048260320027  1.0000
  O   O1        1.0  0.8880173642813298  0.0013791354264074804  0.4571704569375732  1.0000
  O   O2        1.0  0.8606101984758192  0.1995952085563944  0.6610786742474314  1.0000
  O   O3        1.0  0.9796441338422537  0.799691672021092  0.977357974367976  1.0000
  O   O4        1.0  0.053672245928366315  0.35625650341531334  0.3057482716855355  1.0000
  O   O5        1.0  0.42579109530224973  0.8874230458771778  0.9034050343900067  1.0000
  O   O6        1.0  0.9874317194048873  0.17117383349022236  0.9986353146593718  1.0000
  O   O7        1.0  0.34410140105121645  0.5571796447024974  0.8653943530276105  1.0000
  O   O8        1.0  0.20765134080246048  0.7887007918521294  0.2874713316384894  1.0000
  O   O9        1.0  0.41146732705195826  0.3670279500693779  0.5861286394247025  1.0000
  O   O10       1.0  0.8707358918687587  0.6326233264758954  0.785307162577255  1.0000
  O   O11       1.0  0.7025642461363513  0.6585713926526755  0.4212758800731406  1.0000
  O   O12       1.0  0.28520267896476087  0.936823136663021  0.5581139364251588  1.0000
  O   O13       1.0  0.5593610002015469  0.04588144609626051  0.14591753313207548  1.0000
  O   O14       1.0  0.5624299078573144  0.4664161235259881  0.14690491685101348  1.0000
data_image139
_chemical_formula_structural       V8O14
_chemical_formula_sum              "V8 O14"
_cell_length_a       5.550582121701734
_cell_length_b       6.786413640792483
_cell_length_c       6.98693040473207
_cell_angle_alpha    64.37373990390658
_cell_angle_beta     70.29505848782973
_cell_angle_gamma    75.17998095895898

_space_group_name_H-M_alt    "P 1"
_space_group_IT_number       1

loop_
  _space_group_symop_operation_xyz
  'x, y, z'

loop_
  _atom_site_type_symbol
  _atom_site_label
  _atom_site_symmetry_multiplicity
  _atom_site_fract_x
  _atom_site_fract_y
  _atom_site_fract_z
  _atom_site_occupancy
  V   V1        1.0  0.17320795319344776  0.11727991494679961  0.23196279037589887  1.0000
  V   V2        1.0  0.7591447800243228  0.3388422295370047  0.4218660702040883  1.0000
  V   V3        1.0  0.2884707088097588  0.6299351595830278  0.5824049203409966  1.0000
  V   V4        1.0  0.30537034191282353  0.6574661785918748  0.07600883371171806  1.0000
  V   V5        1.0  0.7111116587077883  0.3658490699519332  0.9140965953236264  1.0000
  V   V6        1.0  0.18411194504746636  0.08291248943552404  0.7767882132809643  1.0000
  V   V7        1.0  0.803622663145557  0.9236681583352245  0.2564805863464416  1.0000
  V   V8        1.0  0.8499218741001417  0.8372756082723722  0.7856877068440561  1.0000
  O   O1        1.0  0.7505725306948817  0.09532370517651442  0.3953158046796241  1.0000
  O   O2        1.0  0.820603245477842  0.19994143264281372  0.7258910210375648  1.0000
  O   O3        1.0  0.9408803923896083  0.8168785737384765  0.025292845439808254  1.0000
  O   O4        1.0  0.08442795224716633  0.40967204284309205  0.24294419695037467  1.0000
  O   O5        1.0  0.45338759170085235  0.8965600744766922  0.8017804039747434  1.0000
  O   O6        1.0  0.039224217980524514  0.19963194961379335  0.9822146148695936  1.0000
  O   O7        1.0  0.36213331716023334  0.5312156890122351  0.8415759824173829  1.0000
  O   O8        1.0  0.20133899509863265  0.7868146217793561  0.28487844919109034  1.0000
  O   O9        1.0  0.35148014828434637  0.34703432278043606  0.5776882091615605  1.0000
  O   O10       1.0  0.9325945364197946  0.6207737427453803  0.6753425554974067  1.0000
  O   O11       1.0  0.6237015885722055  0.6768731650254735  0.42538680452256067  1.0000
  O   O12       1.0  0.13956901396640872  0.9564608491177259  0.5796491280736427  1.0000
  O   O13       1.0  0.5131307650511974  0.0980733311687957  0.1304247797160656  1.0000
  O   O14       1.0  0.607122657742408  0.5217033909514036  0.11278740854374451  1.0000
data_image140
_chemical_formula_structural       V8O14
_chemical_formula_sum              "V8 O14"
_cell_length_a       5.550582121701734
_cell_length_b       6.786413640792483
_cell_length_c       6.98693040473207
_cell_angle_alpha    64.37373990390658
_cell_angle_beta     70.29505848782973
_cell_angle_gamma    75.17998095895898

_space_group_name_H-M_alt    "P 1"
_space_group_IT_number       1

loop_
  _space_group_symop_operation_xyz
  'x, y, z'

loop_
  _atom_site_type_symbol
  _atom_site_label
  _atom_site_symmetry_multiplicity
  _atom_site_fract_x
  _atom_site_fract_y
  _atom_site_fract_z
  _atom_site_occupancy
  V   V1        1.0  0.19734522552756162  0.08237675355421707  0.26364176685493007  1.0000
  V   V2        1.0  0.7534979449144878  0.3351882619018756  0.37419529560060455  1.0000
  V   V3        1.0  0.28497733938382164  0.6090408282423645  0.5829350526961959  1.0000
  V   V4        1.0  0.2879123774712383  0.600006350179993  0.09955871118823548  1.0000
  V   V5        1.0  0.7083181558227212  0.3748379585674453  0.9110043539874222  1.0000
  V   V6        1.0  0.1838597540882498  0.1436538309075852  0.7049470650162525  1.0000
  V   V7        1.0  0.8334022258434368  0.9250780319261761  0.22249165186259245  1.0000
  V   V8        1.0  0.7628874450054929  0.929552854580184  0.7409333843091939  1.0000
  O   O1        1.0  0.7674238571645265  0.02045330762473889  0.4537907525393584  1.0000
  O   O2        1.0  0.7860880802265022  0.1545450026283811  0.7951654824080844  1.0000
  O   O3        1.0  0.9737465268003416  0.7903480942961424  0.030108512291862732  1.0000
  O   O4        1.0  0.060825444790749805  0.38824816283998215  0.3520595923819556  1.0000
  O   O5        1.0  0.41832636198829865  0.9554501253910064  0.8894328859016817  1.0000
  O   O6        1.0  0.02569797171806125  0.2364949136431675  0.039798620744620865  1.0000
  O   O7        1.0  0.3702226659734547  0.5438021116620132  0.8585268533393677  1.0000
  O   O8        1.0  0.21652190442752706  0.7458877266895508  0.30960502896868297  1.0000
  O   O9        1.0  0.4229222452797015  0.3337514000650024  0.5552233745742922  1.0000
  O   O10       1.0  0.9172458703803985  0.5859976273656886  0.7202085362642933  1.0000
  O   O11       1.0  0.6451775810143687  0.6949788339919549  0.3974105808910332  1.0000
  O   O12       1.0  0.23741111543184262  0.9348754680059771  0.5921545267951005  1.0000
  O   O13       1.0  0.5421494174987225  0.11015276621296564  0.16292370288828864  1.0000
  O   O14       1.0  0.6389750417978819  0.5077197794573639  0.11297339466544443  1.0000
data_image141
_chemical_formula_structural       V8O14
_chemical_formula_sum              "V8 O14"
_cell_length_a       5.550582121701734
_cell_length_b       6.786413640792483
_cell_length_c       6.98693040473207
_cell_angle_alpha    64.37373990390658
_cell_angle_beta     70.29505848782973
_cell_angle_gamma    75.17998095895898

_space_group_name_H-M_alt    "P 1"
_space_group_IT_number       1

loop_
  _space_group_symop_operation_xyz
  'x, y, z'

loop_
  _atom_site_type_symbol
  _atom_site_label
  _atom_site_symmetry_multiplicity
  _atom_site_fract_x
  _atom_site_fract_y
  _atom_site_fract_z
  _atom_site_occupancy
  V   V1        1.0  0.2526529020753641  0.04926743578409613  0.23631772075563948  1.0000
  V   V2        1.0  0.7130188589440791  0.3557956749487402  0.4136887567027802  1.0000
  V   V3        1.0  0.27626537265663403  0.6506062610684291  0.6081393355548043  1.0000
  V   V4        1.0  0.26747502972798937  0.6407543675320451  0.10107032681499716  1.0000
  V   V5        1.0  0.7353068269676212  0.37613646568920356  0.9083621774298  1.0000
  V   V6        1.0  0.19531486354797978  0.13107317033161828  0.7249237930207366  1.0000
  V   V7        1.0  0.7685625950403425  0.8953989301033918  0.2716885404795192  1.0000
  V   V8        1.0  0.7996350054303858  0.8961585542848856  0.7596655630219908  1.0000
  O   O1        1.0  0.8153528703331157  0.022079370090437412  0.4805773926739986  1.0000
  O   O2        1.0  0.822465587813656  0.2781030142385675  0.6726652556265876  1.0000
  O   O3        1.0  0.9675931819579094  0.8266482465006106  0.957564995840894  1.0000
  O   O4        1.0  0.0264960188622255  0.34969219211656555  0.27603555799508517  1.0000
  O   O5        1.0  0.4481995907498766  0.9228424627621653  0.8753337242615404  1.0000
  O   O6        1.0  0.0009398208255360418  0.20454730585621536  0.017957159600766548  1.0000
  O   O7        1.0  0.3932468445139408  0.4602019750398782  0.8645570015428142  1.0000
  O   O8        1.0  0.12386482220730001  0.7788403782100848  0.3220334102367589  1.0000
  O   O9        1.0  0.3952228779917765  0.34954584558977736  0.5442767134511953  1.0000
  O   O10       1.0  0.9178186177253863  0.641479116730952  0.7196459847385167  1.0000
  O   O11       1.0  0.5896502857999046  0.6397173671197209  0.38722438696402955  1.0000
  O   O12       1.0  0.3343630303489499  0.9363863165420125  0.5149994858061088  1.0000
  O   O13       1.0  0.5772055676951746  0.1068994181251884  0.11309098099875849  1.0000
  O   O14       1.0  0.6309234108363124  0.502236348768048  0.12152261045813371  1.0000
data_image142
_chemical_formula_structural       V8O14
_chemical_formula_sum              "V8 O14"
_cell_length_a       5.550582121701734
_cell_length_b       6.786413640792483
_cell_length_c       6.98693040473207
_cell_angle_alpha    64.37373990390658
_cell_angle_beta     70.29505848782973
_cell_angle_gamma    75.17998095895898

_space_group_name_H-M_alt    "P 1"
_space_group_IT_number       1

loop_
  _space_group_symop_operation_xyz
  'x, y, z'

loop_
  _atom_site_type_symbol
  _atom_site_label
  _atom_site_symmetry_multiplicity
  _atom_site_fract_x
  _atom_site_fract_y
  _atom_site_fract_z
  _atom_site_occupancy
  V   V1        1.0  0.19517358263287635  0.08566630154231904  0.25280062850232254  1.0000
  V   V2        1.0  0.708977294261229  0.3761881969582693  0.39352405032768606  1.0000
  V   V3        1.0  0.2899776951648654  0.5854921631222378  0.568615743689308  1.0000
  V   V4        1.0  0.2716016921040904  0.6388307692913812  0.12167573788896244  1.0000
  V   V5        1.0  0.74808576929446  0.3801729471845724  0.8907859161297057  1.0000
  V   V6        1.0  0.19029870244893218  0.07921804535655898  0.7599016481563805  1.0000
  V   V7        1.0  0.7652170290963773  0.9024164566428675  0.2876655665699815  1.0000
  V   V8        1.0  0.8154735133899544  0.8921287902765181  0.7564084189632181  1.0000
  O   O1        1.0  0.7709138952390836  0.08299332997497427  0.4160748767542087  1.0000
  O   O2        1.0  0.8925889822864068  0.23757062589384112  0.6929600935139967  1.0000
  O   O3        1.0  0.880660474649269  0.839091699626073  0.05312390806545397  1.0000
  O   O4        1.0  0.14505639357576486  0.41625870544200316  0.24299392082730767  1.0000
  O   O5        1.0  0.4242527650656961  0.9094487998300437  0.9080861882442308  1.0000
  O   O6        1.0  0.05899982738853473  0.2508689632983169  0.981948036852241  1.0000
  O   O7        1.0  0.3908540180835257  0.5336055673476439  0.8210056135993086  1.0000
  O   O8        1.0  0.1790054899418569  0.8114239551989837  0.2742320028133697  1.0000
  O   O9        1.0  0.4125087082217501  0.2963862728579565  0.5158444360625662  1.0000
  O   O10       1.0  0.9097580385842343  0.628623328318154  0.6806123124026908  1.0000
  O   O11       1.0  0.6902559029405764  0.6138506000051184  0.45283374892964706  1.0000
  O   O12       1.0  0.20428109073699735  0.9250051082713786  0.5925635302429607  1.0000
  O   O13       1.0  0.563835171203314  0.13204967190163266  0.09244228224218151  1.0000
  O   O14       1.0  0.60736415163807  0.5206229051665923  0.10952101331424138  1.0000
data_image143
_chemical_formula_structural       V8O14
_chemical_formula_sum              "V8 O14"
_cell_length_a       5.550582121701734
_cell_length_b       6.786413640792483
_cell_length_c       6.98693040473207
_cell_angle_alpha    64.37373990390658
_cell_angle_beta     70.29505848782973
_cell_angle_gamma    75.17998095895898

_space_group_name_H-M_alt    "P 1"
_space_group_IT_number       1

loop_
  _space_group_symop_operation_xyz
  'x, y, z'

loop_
  _atom_site_type_symbol
  _atom_site_label
  _atom_site_symmetry_multiplicity
  _atom_site_fract_x
  _atom_site_fract_y
  _atom_site_fract_z
  _atom_site_occupancy
  V   V1        1.0  0.20196653475820958  0.06999419583847122  0.2319777514579083  1.0000
  V   V2        1.0  0.6964458359309336  0.37162059645689777  0.4103750767200056  1.0000
  V   V3        1.0  0.30112911682092325  0.6725879510392707  0.5861565045902619  1.0000
  V   V4        1.0  0.2686167206539005  0.6267604398255969  0.10329036932992598  1.0000
  V   V5        1.0  0.7556365542248527  0.3879435276625851  0.8896342024336916  1.0000
  V   V6        1.0  0.19830799848950856  0.10535582524488557  0.7535816985108446  1.0000
  V   V7        1.0  0.8208879422429136  0.8932193147483581  0.2397178368133  1.0000
  V   V8        1.0  0.8071232824051291  0.8878142910719418  0.745516653645459  1.0000
  O   O1        1.0  0.7733270066750005  0.03829561878918565  0.4508343905869761  1.0000
  O   O2        1.0  0.815331986202836  0.22897273895310577  0.6949050417811792  1.0000
  O   O3        1.0  0.9138361147830477  0.8258458951890334  0.008842743850262735  1.0000
  O   O4        1.0  0.0804093005864632  0.3587473308698467  0.2969831862398232  1.0000
  O   O5        1.0  0.4300624697461832  0.8957981051316072  0.8764854498863852  1.0000
  O   O6        1.0  0.04923875183607574  0.1678621928856705  0.012869592504422324  1.0000
  O   O7        1.0  0.3781964802599227  0.47070361850929504  0.8606996243680114  1.0000
  O   O8        1.0  0.1513651852453861  0.7751231949952105  0.31463400199180586  1.0000
  O   O9        1.0  0.35773498474315907  0.3593030576744555  0.6008000149603904  1.0000
  O   O10       1.0  0.9184858730200475  0.6290311989383683  0.6793017001970633  1.0000
  O   O11       1.0  0.6628325511284472  0.6551795671519449  0.3978017590679944  1.0000
  O   O12       1.0  0.20034468626781154  0.9514227210386097  0.5758695435873381  1.0000
  O   O13       1.0  0.5519282729812196  0.11674558785019856  0.1349814855121389  1.0000
  O   O14       1.0  0.6475391197103468  0.4942163160893948  0.14259436398012218  1.0000
data_image144
_chemical_formula_structural       V8O14
_chemical_formula_sum              "V8 O14"
_cell_length_a       5.550582121701734
_cell_length_b       6.786413640792483
_cell_length_c       6.98693040473207
_cell_angle_alpha    64.37373990390658
_cell_angle_beta     70.29505848782973
_cell_angle_gamma    75.17998095895898

_space_group_name_H-M_alt    "P 1"
_space_group_IT_number       1

loop_
  _space_group_symop_operation_xyz
  'x, y, z'

loop_
  _atom_site_type_symbol
  _atom_site_label
  _atom_site_symmetry_multiplicity
  _atom_site_fract_x
  _atom_site_fract_y
  _atom_site_fract_z
  _atom_site_occupancy
  V   V1        1.0  0.1583491845655008  0.13937476109018201  0.25943129553998406  1.0000
  V   V2        1.0  0.7231436323708725  0.35994383282193715  0.41423650892560715  1.0000
  V   V3        1.0  0.2523186017877693  0.5997280451406646  0.602181733040288  1.0000
  V   V4        1.0  0.30065642137538645  0.6477156561550814  0.08808738948708794  1.0000
  V   V5        1.0  0.6723561447842901  0.37506442831054665  0.9438613379902426  1.0000
  V   V6        1.0  0.20679686187403754  0.07530668046480664  0.7779282671564623  1.0000
  V   V7        1.0  0.8404040458168803  0.8972280100784615  0.20483641499302252  1.0000
  V   V8        1.0  0.8294486478504446  0.9113267254030083  0.7286801130566386  1.0000
  O   O1        1.0  0.7731311016973224  0.047287117793877884  0.43018423072240025  1.0000
  O   O2        1.0  0.8365589668629615  0.26133894702540406  0.6310392062604422  1.0000
  O   O3        1.0  0.9538595785850408  0.8295588875886436  0.9545286941567698  1.0000
  O   O4        1.0  0.0587807860737678  0.42387524152871947  0.2215252110594531  1.0000
  O   O5        1.0  0.5038769007569442  0.8992959964329404  0.8669375130205319  1.0000
  O   O6        1.0  0.03934557843151978  0.15909145805972663  0.022255298627241106  1.0000
  O   O7        1.0  0.3605653796940227  0.5026452529474086  0.8679840152188607  1.0000
  O   O8        1.0  0.1976083868565143  0.7786612419970711  0.29624212799459726  1.0000
  O   O9        1.0  0.3902112301690943  0.3403606597039332  0.5971061746580473  1.0000
  O   O10       1.0  0.9172829065997747  0.5909701427360671  0.7671902274364941  1.0000
  O   O11       1.0  0.6256133007674081  0.690147140578955  0.4086866846810247  1.0000
  O   O12       1.0  0.28714564594100767  0.8885335882816016  0.5670430479657812  1.0000
  O   O13       1.0  0.5337136115271174  0.11356904697746238  0.11282303871564381  1.0000
  O   O14       1.0  0.6665481277815628  0.46327761010630897  0.12330808998218652  1.0000
data_image145
_chemical_formula_structural       V8O14
_chemical_formula_sum              "V8 O14"
_cell_length_a       5.550582121701734
_cell_length_b       6.786413640792483
_cell_length_c       6.98693040473207
_cell_angle_alpha    64.37373990390658
_cell_angle_beta     70.29505848782973
_cell_angle_gamma    75.17998095895898

_space_group_name_H-M_alt    "P 1"
_space_group_IT_number       1

loop_
  _space_group_symop_operation_xyz
  'x, y, z'

loop_
  _atom_site_type_symbol
  _atom_site_label
  _atom_site_symmetry_multiplicity
  _atom_site_fract_x
  _atom_site_fract_y
  _atom_site_fract_z
  _atom_site_occupancy
  V   V1        1.0  0.22665194737364047  0.08802463699134128  0.22584039136756778  1.0000
  V   V2        1.0  0.6946388268880029  0.32833077429495305  0.4029495275055562  1.0000
  V   V3        1.0  0.26957264355008803  0.638539682202301  0.5842041664166544  1.0000
  V   V4        1.0  0.2503840807883198  0.615345152074842  0.09349862008942743  1.0000
  V   V5        1.0  0.748485233845728  0.4078351686041809  0.8830983181377322  1.0000
  V   V6        1.0  0.1945674247478957  0.09976432177444951  0.7746786839790268  1.0000
  V   V7        1.0  0.7769879962803888  0.8976227125478494  0.26806231890970184  1.0000
  V   V8        1.0  0.8252887295814341  0.9022819827954321  0.7868988173502541  1.0000
  O   O1        1.0  0.7297789203015639  0.0119222697829987  0.4772635891694001  1.0000
  O   O2        1.0  0.8656701017924605  0.2032250435662994  0.7173816760774109  1.0000
  O   O3        1.0  0.9430722337890675  0.8070244239843734  0.030062628229599264  1.0000
  O   O4        1.0  0.11185559931581367  0.3756889025902361  0.2297494969076548  1.0000
  O   O5        1.0  0.4433752005884228  0.8624198080078828  0.9195883806117517  1.0000
  O   O6        1.0  0.05126164178756004  0.21179334968911073  0.9794896823204139  1.0000
  O   O7        1.0  0.4518844812125954  0.5358264352075841  0.8261743557247483  1.0000
  O   O8        1.0  0.17017978200720607  0.7737880561960516  0.31153930687960696  1.0000
  O   O9        1.0  0.3575144707209802  0.3549437616326356  0.5805839983316202  1.0000
  O   O10       1.0  0.9353131545371443  0.6600823316537472  0.6500814461396326  1.0000
  O   O11       1.0  0.6377421383684408  0.6495420209791758  0.38356911539430627  1.0000
  O   O12       1.0  0.17772982547669094  0.028137773637178842  0.5626163470486623  1.0000
  O   O13       1.0  0.5628966639548811  0.12080723423294826  0.0806627667921508  1.0000
  O   O14       1.0  0.7061501196141343  0.4891797546937689  0.11069601782366228  1.0000
data_image146
_chemical_formula_structural       V8O14
_chemical_formula_sum              "V8 O14"
_cell_length_a       5.550582121701734
_cell_length_b       6.786413640792483
_cell_length_c       6.98693040473207
_cell_angle_alpha    64.37373990390658
_cell_angle_beta     70.29505848782973
_cell_angle_gamma    75.17998095895898

_space_group_name_H-M_alt    "P 1"
_space_group_IT_number       1

loop_
  _space_group_symop_operation_xyz
  'x, y, z'

loop_
  _atom_site_type_symbol
  _atom_site_label
  _atom_site_symmetry_multiplicity
  _atom_site_fract_x
  _atom_site_fract_y
  _atom_site_fract_z
  _atom_site_occupancy
  V   V1        1.0  0.1872507166842632  0.09396722402045003  0.25747343356372887  1.0000
  V   V2        1.0  0.7258022683304008  0.40047682882197594  0.4087964126569869  1.0000
  V   V3        1.0  0.2560081868881562  0.637667220764977  0.5693166112044801  1.0000
  V   V4        1.0  0.3104186490713939  0.6339633511448984  0.06784106497208323  1.0000
  V   V5        1.0  0.7221302158280687  0.34867812913329327  0.9115432501794293  1.0000
  V   V6        1.0  0.23386418808416384  0.08040753241426632  0.7713421081206828  1.0000
  V   V7        1.0  0.7861738307165212  0.9210742367689838  0.21264516071929795  1.0000
  V   V8        1.0  0.8130073949746731  0.8682274302707156  0.7519922230975288  1.0000
  O   O1        1.0  0.7885397575204058  0.0839441529809006  0.4651102653752214  1.0000
  O   O2        1.0  0.7738884671996037  0.2392033602837756  0.7178086184077299  1.0000
  O   O3        1.0  0.9254644195238969  0.8030639508497964  0.023419297536373618  1.0000
  O   O4        1.0  0.1203123856385374  0.36859701726942634  0.26328222517555444  1.0000
  O   O5        1.0  0.46290130327621914  0.8563007960468946  0.9317294635177176  1.0000
  O   O6        1.0  0.014150668095547648  0.16202785328670516  0.03291475804462846  1.0000
  O   O7        1.0  0.3633275920784027  0.5091528207093083  0.8313053530255655  1.0000
  O   O8        1.0  0.15935262720420212  0.7819190050489503  0.2898808797979899  1.0000
  O   O9        1.0  0.3634309275604896  0.34993426320601034  0.5567058842306508  1.0000
  O   O10       1.0  0.9735813985594243  0.600029662583904  0.7452451428614831  1.0000
  O   O11       1.0  0.6645601631322346  0.67466058333253  0.452167238226495  1.0000
  O   O12       1.0  0.2516959170502533  0.9604911143196451  0.5090122255719892  1.0000
  O   O13       1.0  0.527567772850433  0.15245432127826636  0.12908888589279185  1.0000
  O   O14       1.0  0.6096789809548645  0.526667160563978  0.13668618153880982  1.0000
data_image147
_chemical_formula_structural       V8O14
_chemical_formula_sum              "V8 O14"
_cell_length_a       5.550582121701734
_cell_length_b       6.786413640792483
_cell_length_c       6.98693040473207
_cell_angle_alpha    64.37373990390658
_cell_angle_beta     70.29505848782973
_cell_angle_gamma    75.17998095895898

_space_group_name_H-M_alt    "P 1"
_space_group_IT_number       1

loop_
  _space_group_symop_operation_xyz
  'x, y, z'

loop_
  _atom_site_type_symbol
  _atom_site_label
  _atom_site_symmetry_multiplicity
  _atom_site_fract_x
  _atom_site_fract_y
  _atom_site_fract_z
  _atom_site_occupancy
  V   V1        1.0  0.21163296795149308  0.16323952707762132  0.1964897381883473  1.0000
  V   V2        1.0  0.691142562489377  0.37113573963958535  0.42063240652382905  1.0000
  V   V3        1.0  0.30148655386556084  0.6197384530485627  0.6151884539353221  1.0000
  V   V4        1.0  0.2809605183341215  0.6359724586679814  0.1282432901800697  1.0000
  V   V5        1.0  0.7429751298664516  0.36174892117850493  0.909170445410756  1.0000
  V   V6        1.0  0.16258830293812157  0.07169033497052243  0.7393090647976962  1.0000
  V   V7        1.0  0.850416502171183  0.9137848950684938  0.23129865361190077  1.0000
  V   V8        1.0  0.8084172115257121  0.8778693624282401  0.7138194278317719  1.0000
  O   O1        1.0  0.838772702906313  0.06958173595534033  0.405803159840575  1.0000
  O   O2        1.0  0.7733553353580773  0.21073299336608692  0.7102594802223783  1.0000
  O   O3        1.0  0.951087619961831  0.8493703844425888  0.9310576382979445  1.0000
  O   O4        1.0  0.06968892365416002  0.3912465686243823  0.2929474039437584  1.0000
  O   O5        1.0  0.381111125322835  0.8625104363962051  0.9027112119823013  1.0000
  O   O6        1.0  0.10278964366945761  0.18008193617065857  0.9736986314543248  1.0000
  O   O7        1.0  0.32501040342777454  0.4903210065393313  0.9118223985886188  1.0000
  O   O8        1.0  0.22244628297555838  0.8225815439197192  0.2842851385292217  1.0000
  O   O9        1.0  0.2833755905287581  0.3598992386527869  0.575392681269846  1.0000
  O   O10       1.0  0.9232221153526387  0.6031593015595262  0.7246465670813945  1.0000
  O   O11       1.0  0.663617942765485  0.6337383289551283  0.44449170831695833  1.0000
  O   O12       1.0  0.23538833157728423  0.9453196967958808  0.5534561124289697  1.0000
  O   O13       1.0  0.5512371935357612  0.11463457135803555  0.19620762697483266  1.0000
  O   O14       1.0  0.6283391400614488  0.4388728601370322  0.1702960551899742  1.0000
data_image148
_chemical_formula_structural       V8O14
_chemical_formula_sum              "V8 O14"
_cell_length_a       5.550582121701734
_cell_length_b       6.786413640792483
_cell_length_c       6.98693040473207
_cell_angle_alpha    64.37373990390658
_cell_angle_beta     70.29505848782973
_cell_angle_gamma    75.17998095895898

_space_group_name_H-M_alt    "P 1"
_space_group_IT_number       1

loop_
  _space_group_symop_operation_xyz
  'x, y, z'

loop_
  _atom_site_type_symbol
  _atom_site_label
  _atom_site_symmetry_multiplicity
  _atom_site_fract_x
  _atom_site_fract_y
  _atom_site_fract_z
  _atom_site_occupancy
  V   V1        1.0  0.23311970696039166  0.08352209953511244  0.17798803141151867  1.0000
  V   V2        1.0  0.7546898411444157  0.36268815332370674  0.416229888435241  1.0000
  V   V3        1.0  0.32015029361855124  0.6543710479848998  0.5752577508868011  1.0000
  V   V4        1.0  0.26846341945546215  0.6432756244954576  0.051166222918265225  1.0000
  V   V5        1.0  0.6774460496681669  0.3755851797233068  0.9307082670013698  1.0000
  V   V6        1.0  0.20194669475353144  0.15467814031015417  0.728628252151512  1.0000
  V   V7        1.0  0.8200677804408799  0.9133331317559577  0.2949700802741917  1.0000
  V   V8        1.0  0.7983509409048675  0.8939185924298795  0.774439042680718  1.0000
  O   O1        1.0  0.6531826033319583  0.05822673068520721  0.46452855744094845  1.0000
  O   O2        1.0  0.8218094996314106  0.1977967729275914  0.7204978354533247  1.0000
  O   O3        1.0  0.9870931504430883  0.778132508588516  0.022251998674829743  1.0000
  O   O4        1.0  0.12632112492066394  0.37974602544170744  0.28580300108691686  1.0000
  O   O5        1.0  0.47380973294528533  0.8916988028768321  0.819678710678119  1.0000
  O   O6        1.0  0.982644199372965  0.16816753553736918  0.032392085953471886  1.0000
  O   O7        1.0  0.3661924993511267  0.47071774476722744  0.8897414458497999  1.0000
  O   O8        1.0  0.16963997611962556  0.7729495925592422  0.3012264750787695  1.0000
  O   O9        1.0  0.3827210895547205  0.3868878418039415  0.5438032196363974  1.0000
  O   O10       1.0  0.8590036178057627  0.6100327300891731  0.7227748532246594  1.0000
  O   O11       1.0  0.6862618405033247  0.6359947528953401  0.4347798253128651  1.0000
  O   O12       1.0  0.16854945686268266  0.9143380926024445  0.6271898889855392  1.0000
  O   O13       1.0  0.5707131291353144  0.031315264707307985  0.0895385160538494  1.0000
  O   O14       1.0  0.6287265668266498  0.46443600293919474  0.13990619449277958  1.0000
data_image149
_chemical_formula_structural       V8O14
_chemical_formula_sum              "V8 O14"
_cell_length_a       5.550582121701734
_cell_length_b       6.786413640792483
_cell_length_c       6.98693040473207
_cell_angle_alpha    64.37373990390658
_cell_angle_beta     70.29505848782973
_cell_angle_gamma    75.17998095895898

_space_group_name_H-M_alt    "P 1"
_space_group_IT_number       1

loop_
  _space_group_symop_operation_xyz
  'x, y, z'

loop_
  _atom_site_type_symbol
  _atom_site_label
  _atom_site_symmetry_multiplicity
  _atom_site_fract_x
  _atom_site_fract_y
  _atom_site_fract_z
  _atom_site_occupancy
  V   V1        1.0  0.23979022370978234  0.05937940347706692  0.20739702973170412  1.0000
  V   V2        1.0  0.6711226391290205  0.3510046557417374  0.38050671761962257  1.0000
  V   V3        1.0  0.2963812277671431  0.6304967950100914  0.6083682500586448  1.0000
  V   V4        1.0  0.26271428519589085  0.6065616553916368  0.14353787796749728  1.0000
  V   V5        1.0  0.697131326918302  0.38369099037181376  0.8746362159265856  1.0000
  V   V6        1.0  0.2581647794703525  0.08834226721030235  0.7226697197495392  1.0000
  V   V7        1.0  0.790813497152858  0.908649462020249  0.25607535225906614  1.0000
  V   V8        1.0  0.8569064169846476  0.9127464877360195  0.7756786783210126  1.0000
  O   O1        1.0  0.739295063987536  0.08646772430330608  0.43744696083326573  1.0000
  O   O2        1.0  0.8409121294396698  0.20223231493881672  0.6920663023365008  1.0000
  O   O3        1.0  0.0123845692598048  0.8179502206294089  0.9903342921421183  1.0000
  O   O4        1.0  0.01316607406482012  0.35323888920677865  0.3087732499869135  1.0000
  O   O5        1.0  0.4703731383879518  0.9523750212584385  0.9020891079510839  1.0000
  O   O6        1.0  0.08377374654981357  0.20927742170513416  0.9709407186515945  1.0000
  O   O7        1.0  0.32092494431208707  0.47162021259179066  0.8787137468807644  1.0000
  O   O8        1.0  0.12996847515216495  0.7736624866704351  0.3584033812203018  1.0000
  O   O9        1.0  0.3569091870068485  0.35765730732307016  0.5255357130183386  1.0000
  O   O10       1.0  0.9061248194841425  0.6264631103399783  0.7423054453673821  1.0000
  O   O11       1.0  0.6165389377019664  0.6761423975416925  0.41535021868039845  1.0000
  O   O12       1.0  0.24184567787932545  0.9427655480333031  0.5677404086082145  1.0000
  O   O13       1.0  0.5214306533909245  0.16615775083077228  0.14144142106872923  1.0000
  O   O14       1.0  0.6337560752576349  0.5778283375594722  0.10088431072413424  1.0000
data_image150
_chemical_formula_structural       V8O14
_chemical_formula_sum              "V8 O14"
_cell_length_a       5.550582121701734
_cell_length_b       6.786413640792483
_cell_length_c       6.98693040473207
_cell_angle_alpha    64.37373990390658
_cell_angle_beta     70.29505848782973
_cell_angle_gamma    75.17998095895898

_space_group_name_H-M_alt    "P 1"
_space_group_IT_number       1

loop_
  _space_group_symop_operation_xyz
  'x, y, z'

loop_
  _atom_site_type_symbol
  _atom_site_label
  _atom_site_symmetry_multiplicity
  _atom_site_fract_x
  _atom_site_fract_y
  _atom_site_fract_z
  _atom_site_occupancy
  V   V1        1.0  0.20214973959142102  0.11483457396082297  0.2975285348419037  1.0000
  V   V2        1.0  0.7736441498248623  0.3125452749185924  0.4640851999210206  1.0000
  V   V3        1.0  0.30516748916200076  0.6466531831995189  0.5831510386227942  1.0000
  V   V4        1.0  0.31643426274981973  0.669535630851793  0.07081215101508226  1.0000
  V   V5        1.0  0.6988814051579636  0.3593948440735069  0.8885763915039666  1.0000
  V   V6        1.0  0.16337181734359754  0.12140460033422934  0.7429231618021113  1.0000
  V   V7        1.0  0.8152268261853974  0.9020813584194616  0.22357312567964097  1.0000
  V   V8        1.0  0.7721712043915429  0.8145354164001082  0.7750340075209444  1.0000
  O   O1        1.0  0.799911369969204  0.08563592129743507  0.386520215806533  1.0000
  O   O2        1.0  0.7765166759872685  0.20579457562398928  0.7432296866421401  1.0000
  O   O3        1.0  0.9535149281373899  0.8336997327036128  0.9797205536116529  1.0000
  O   O4        1.0  0.11231760984842351  0.4209185624863666  0.23573920666046036  1.0000
  O   O5        1.0  0.4296445993264015  0.9298626581988677  0.8694900493461027  1.0000
  O   O6        1.0  0.9989835543776354  0.15029262865660906  0.008054792640551952  1.0000
  O   O7        1.0  0.45339434109171195  0.5964407156936157  0.8233900133571767  1.0000
  O   O8        1.0  0.18342950579231562  0.8055942001994881  0.298286860630483  1.0000
  O   O9        1.0  0.3212805474333217  0.3466726282382629  0.5687447372691253  1.0000
  O   O10       1.0  0.9776201363319802  0.6014935590018011  0.671088247877675  1.0000
  O   O11       1.0  0.5934289424663518  0.6501145708765169  0.3711420988237396  1.0000
  O   O12       1.0  0.19791762694813217  0.9406013037617243  0.6038008985746453  1.0000
  O   O13       1.0  0.5476603619755517  0.10949100224540961  0.11411516373493796  1.0000
  O   O14       1.0  0.6337795348838202  0.5340555682796861  0.10643765638861045  1.0000
data_image151
_chemical_formula_structural       V8O14
_chemical_formula_sum              "V8 O14"
_cell_length_a       5.550582121701734
_cell_length_b       6.786413640792483
_cell_length_c       6.98693040473207
_cell_angle_alpha    64.37373990390658
_cell_angle_beta     70.29505848782973
_cell_angle_gamma    75.17998095895898

_space_group_name_H-M_alt    "P 1"
_space_group_IT_number       1

loop_
  _space_group_symop_operation_xyz
  'x, y, z'

loop_
  _atom_site_type_symbol
  _atom_site_label
  _atom_site_symmetry_multiplicity
  _atom_site_fract_x
  _atom_site_fract_y
  _atom_site_fract_z
  _atom_site_occupancy
  V   V1        1.0  0.2136716191087323  0.09480021006920657  0.23608928171085394  1.0000
  V   V2        1.0  0.7324586698136358  0.3872551912922297  0.4283013648745984  1.0000
  V   V3        1.0  0.32248075023792117  0.6863387752760981  0.5554472407647528  1.0000
  V   V4        1.0  0.24090587846785855  0.6080619422695366  0.11700737247786246  1.0000
  V   V5        1.0  0.6937543820381028  0.3403850707972639  0.9100891394813097  1.0000
  V   V6        1.0  0.1664049735030444  0.10202297816923125  0.7267823601298888  1.0000
  V   V7        1.0  0.8334855050034523  0.9260068676457858  0.25734750035584353  1.0000
  V   V8        1.0  0.7310123351435373  0.8032800814538784  0.8884937370378257  1.0000
  O   O1        1.0  0.8018972817479116  0.10890318731628054  0.39002259380576015  1.0000
  O   O2        1.0  0.8603761662034001  0.28659726123689827  0.6673033158938024  1.0000
  O   O3        1.0  0.9923818373922255  0.7741852134667239  0.014737965843754308  1.0000
  O   O4        1.0  0.06681821441591274  0.37960425448449736  0.16905346550759723  1.0000
  O   O5        1.0  0.4344723427807123  0.8899782956591777  0.8244742013585834  1.0000
  O   O6        1.0  0.06331454777002589  0.14039469644672375  0.016547178515734402  1.0000
  O   O7        1.0  0.47092478071636523  0.5773885331677605  0.789017222669886  1.0000
  O   O8        1.0  0.1842493435320171  0.767821303096857  0.27365415356546163  1.0000
  O   O9        1.0  0.36927110740750324  0.39105139454140503  0.5730069798799556  1.0000
  O   O10       1.0  0.9060054522429102  0.6789902819420405  0.7189337790148089  1.0000
  O   O11       1.0  0.7210234705092847  0.6808681136065026  0.3976313761595028  1.0000
  O   O12       1.0  0.28894414406623364  0.9651043855012619  0.5031182263577928  1.0000
  O   O13       1.0  0.5491910866977908  0.03657580222540485  0.08699398920665155  1.0000
  O   O14       1.0  0.6209160728909674  0.5113838899895902  0.12967227296485156  1.0000
data_image152
_chemical_formula_structural       V8O14
_chemical_formula_sum              "V8 O14"
_cell_length_a       5.550582121701734
_cell_length_b       6.786413640792483
_cell_length_c       6.98693040473207
_cell_angle_alpha    64.37373990390658
_cell_angle_beta     70.29505848782973
_cell_angle_gamma    75.17998095895898

_space_group_name_H-M_alt    "P 1"
_space_group_IT_number       1

loop_
  _space_group_symop_operation_xyz
  'x, y, z'

loop_
  _atom_site_type_symbol
  _atom_site_label
  _atom_site_symmetry_multiplicity
  _atom_site_fract_x
  _atom_site_fract_y
  _atom_site_fract_z
  _atom_site_occupancy
  V   V1        1.0  0.21508291159916845  0.09600475833207997  0.23484042004870878  1.0000
  V   V2        1.0  0.7510593055092823  0.3281156305044865  0.43476491118800087  1.0000
  V   V3        1.0  0.2529631960052619  0.6491126146834216  0.5502984027833908  1.0000
  V   V4        1.0  0.27653409524921857  0.6083156216966608  0.11058867041756103  1.0000
  V   V5        1.0  0.7663861768607773  0.4109487169570268  0.8435759028406958  1.0000
  V   V6        1.0  0.21806570822072177  0.15479760965329267  0.6684999818885998  1.0000
  V   V7        1.0  0.8058908944490679  0.8993705931150938  0.29275874918886463  1.0000
  V   V8        1.0  0.708569944210327  0.8928873435543941  0.8802101564097418  1.0000
  O   O1        1.0  0.7421444622051296  0.050354677953784246  0.4474303856428146  1.0000
  O   O2        1.0  0.8253421538754784  0.15980208717885885  0.7213548542185285  1.0000
  O   O3        1.0  0.985903745420233  0.7979911784834414  0.031215648016422515  1.0000
  O   O4        1.0  0.10114597770691448  0.32691697388757884  0.3122468119729496  1.0000
  O   O5        1.0  0.4571983604488442  0.9053032300473451  0.8043382046145171  1.0000
  O   O6        1.0  0.003899406421369319  0.17244137844968302  0.031046361961665284  1.0000
  O   O7        1.0  0.45763398352914203  0.4854118849790469  0.84341031295566  1.0000
  O   O8        1.0  0.13237881676446037  0.7666667797899283  0.30277357119348997  1.0000
  O   O9        1.0  0.3864354573181868  0.3921371764413017  0.4598574704591176  1.0000
  O   O10       1.0  0.9347236080090536  0.6730357223050046  0.7310825337643188  1.0000
  O   O11       1.0  0.6923000551855631  0.6257511577379271  0.42467479476417136  1.0000
  O   O12       1.0  0.21135114657060255  0.941742365113683  0.5523455834390305  1.0000
  O   O13       1.0  0.5242704765570507  0.05181845764216981  0.15877543518456208  1.0000
  O   O14       1.0  0.6799495113806334  0.5491256888608215  0.059781884908400605  1.0000
data_image153
_chemical_formula_structural       V8O14
_chemical_formula_sum              "V8 O14"
_cell_length_a       5.550582121701734
_cell_length_b       6.786413640792483
_cell_length_c       6.98693040473207
_cell_angle_alpha    64.37373990390658
_cell_angle_beta     70.29505848782973
_cell_angle_gamma    75.17998095895898

_space_group_name_H-M_alt    "P 1"
_space_group_IT_number       1

loop_
  _space_group_symop_operation_xyz
  'x, y, z'

loop_
  _atom_site_type_symbol
  _atom_site_label
  _atom_site_symmetry_multiplicity
  _atom_site_fract_x
  _atom_site_fract_y
  _atom_site_fract_z
  _atom_site_occupancy
  V   V1        1.0  0.22699578590670733  0.1081641171253909  0.20505727799665413  1.0000
  V   V2        1.0  0.699727707899763  0.33110131732904746  0.41066301973557445  1.0000
  V   V3        1.0  0.28097963930525566  0.6376824926771836  0.6099379943135989  1.0000
  V   V4        1.0  0.23548808201998814  0.6594766014285341  0.1459580957651597  1.0000
  V   V5        1.0  0.7169832748660337  0.37039200598841066  0.9104017052878319  1.0000
  V   V6        1.0  0.22099832286000512  0.10482499171103507  0.6738988483181728  1.0000
  V   V7        1.0  0.7682968760393617  0.8739795537632602  0.26740694851058816  1.0000
  V   V8        1.0  0.7606534732141851  0.8996806868856914  0.8155324523232405  1.0000
  O   O1        1.0  0.8325599956149503  0.1250927593196357  0.30671269853326094  1.0000
  O   O2        1.0  0.8667286397149045  0.18034030353828276  0.6791156202298516  1.0000
  O   O3        1.0  0.9821203267854719  0.8378255630093376  0.025992295922446118  1.0000
  O   O4        1.0  0.12587030313316552  0.3807927009173097  0.3048079386201626  1.0000
  O   O5        1.0  0.39830146835296076  0.9297982458684566  0.89827615890359  1.0000
  O   O6        1.0  0.12125295498680606  0.17437315417214305  0.9388082993111947  1.0000
  O   O7        1.0  0.3832510581353106  0.5060439939228112  0.8630530233825022  1.0000
  O   O8        1.0  0.1354977614446168  0.7987266702568857  0.3409600426939292  1.0000
  O   O9        1.0  0.384601297872658  0.3561779925152594  0.5466176387436928  1.0000
  O   O10       1.0  0.90583927497809  0.6021073319635056  0.7714806106841015  1.0000
  O   O11       1.0  0.6923755653841183  0.6173339278804679  0.4422319586816357  1.0000
  O   O12       1.0  0.3779084210205919  0.952833399054519  0.48178639212833235  1.0000
  O   O13       1.0  0.5442484373471129  0.09148698301354821  0.06395885372298807  1.0000
  O   O14       1.0  0.6450017174004102  0.5232942945147517  0.14907950723795677  1.0000
data_image154
_chemical_formula_structural       V8O14
_chemical_formula_sum              "V8 O14"
_cell_length_a       5.550582121701734
_cell_length_b       6.786413640792483
_cell_length_c       6.98693040473207
_cell_angle_alpha    64.37373990390658
_cell_angle_beta     70.29505848782973
_cell_angle_gamma    75.17998095895898

_space_group_name_H-M_alt    "P 1"
_space_group_IT_number       1

loop_
  _space_group_symop_operation_xyz
  'x, y, z'

loop_
  _atom_site_type_symbol
  _atom_site_label
  _atom_site_symmetry_multiplicity
  _atom_site_fract_x
  _atom_site_fract_y
  _atom_site_fract_z
  _atom_site_occupancy
  V   V1        1.0  0.21860797998563825  0.1128093472830511  0.2304883092500595  1.0000
  V   V2        1.0  0.6565475139344491  0.38156964694617673  0.4141592545082775  1.0000
  V   V3        1.0  0.2629325387233161  0.6340843312513781  0.6163896035233354  1.0000
  V   V4        1.0  0.3367163231757251  0.5876587323831602  0.06881229159634916  1.0000
  V   V5        1.0  0.7553660531162112  0.4023434709392512  0.8225342237386936  1.0000
  V   V6        1.0  0.1786942072895102  0.09167250103033069  0.7364822903604886  1.0000
  V   V7        1.0  0.8641716466165472  0.9112371992824413  0.26348161628173034  1.0000
  V   V8        1.0  0.7587385675175536  0.8894664256454238  0.8520407926923579  1.0000
  O   O1        1.0  0.8089632088145167  0.07934375072856459  0.38610405614135385  1.0000
  O   O2        1.0  0.8073829385089878  0.1796492153935418  0.692654072745711  1.0000
  O   O3        1.0  0.018966009185165777  0.8195219991111157  0.0066199231466823605  1.0000
  O   O4        1.0  0.0808713376174158  0.3785919311996134  0.2725245842938729  1.0000
  O   O5        1.0  0.4053896610191727  0.9047818500893247  0.8870618143381268  1.0000
  O   O6        1.0  0.9886097050926502  0.18163403413137535  0.9920964326721736  1.0000
  O   O7        1.0  0.38910366192104123  0.41211891600643463  0.89578580183666  1.0000
  O   O8        1.0  0.1940341757413525  0.8149629315968073  0.318631869848002  1.0000
  O   O9        1.0  0.28050016078180723  0.3750146801431286  0.5535635244817818  1.0000
  O   O10       1.0  0.8892550243239834  0.6771431197648394  0.7216444639523333  1.0000
  O   O11       1.0  0.651959344491171  0.6752949989356033  0.4144336918949089  1.0000
  O   O12       1.0  0.2552613699797061  0.9487235749101283  0.551998533446929  1.0000
  O   O13       1.0  0.5800346226213109  0.026980940425684295  0.14408220460583296  1.0000
  O   O14       1.0  0.659815840141446  0.5298458314398704  0.07888127297212709  1.0000
data_image155
_chemical_formula_structural       V8O14
_chemical_formula_sum              "V8 O14"
_cell_length_a       5.550582121701734
_cell_length_b       6.786413640792483
_cell_length_c       6.98693040473207
_cell_angle_alpha    64.37373990390658
_cell_angle_beta     70.29505848782973
_cell_angle_gamma    75.17998095895898

_space_group_name_H-M_alt    "P 1"
_space_group_IT_number       1

loop_
  _space_group_symop_operation_xyz
  'x, y, z'

loop_
  _atom_site_type_symbol
  _atom_site_label
  _atom_site_symmetry_multiplicity
  _atom_site_fract_x
  _atom_site_fract_y
  _atom_site_fract_z
  _atom_site_occupancy
  V   V1        1.0  0.17236405575622743  0.10422080279419559  0.2385253839161074  1.0000
  V   V2        1.0  0.742330938897352  0.36205625809871567  0.39069803722510843  1.0000
  V   V3        1.0  0.2871169341899882  0.6720141160827663  0.5880471243810427  1.0000
  V   V4        1.0  0.24758494316739102  0.6289247857363035  0.09024909693624195  1.0000
  V   V5        1.0  0.7887657786601395  0.38001575253684605  0.929170763914627  1.0000
  V   V6        1.0  0.22751853600573702  0.10659217174383256  0.7136675283144616  1.0000
  V   V7        1.0  0.7454926460660353  0.8975577156581825  0.28195459003956413  1.0000
  V   V8        1.0  0.7857630081077723  0.8998340222346011  0.7302547089378318  1.0000
  O   O1        1.0  0.7849802768285709  0.07851689223010654  0.399585663255434  1.0000
  O   O2        1.0  0.8402438457952792  0.2754878270383233  0.6793177485696009  1.0000
  O   O3        1.0  0.9626880883443621  0.7531135294015551  0.0021948688158341945  1.0000
  O   O4        1.0  0.15371513006059873  0.3269590772070209  0.3149179115604978  1.0000
  O   O5        1.0  0.43183109568531264  0.8562414167672677  0.9172682337661049  1.0000
  O   O6        1.0  0.06360319979704954  0.15607190086725622  0.9973164439697874  1.0000
  O   O7        1.0  0.3899616383467324  0.5264603672256771  0.8170550814526353  1.0000
  O   O8        1.0  0.1803338351342224  0.7685365485287271  0.32894302330705355  1.0000
  O   O9        1.0  0.3821866247344115  0.3294171323984777  0.6185395614288405  1.0000
  O   O10       1.0  0.9403189224324807  0.6551017072526103  0.7039516049845117  1.0000
  O   O11       1.0  0.644780337860862  0.6401317715119765  0.44737560482177857  1.0000
  O   O12       1.0  0.25853825633824373  0.9439546127679653  0.5501240722300521  1.0000
  O   O13       1.0  0.5297820073242118  0.10884021873545122  0.09728708544451099  1.0000
  O   O14       1.0  0.5641826232123112  0.4479467407532955  0.17955689337058625  1.0000
data_image156
_chemical_formula_structural       V8O14
_chemical_formula_sum              "V8 O14"
_cell_length_a       5.550582121701734
_cell_length_b       6.786413640792483
_cell_length_c       6.98693040473207
_cell_angle_alpha    64.37373990390658
_cell_angle_beta     70.29505848782973
_cell_angle_gamma    75.17998095895898

_space_group_name_H-M_alt    "P 1"
_space_group_IT_number       1

loop_
  _space_group_symop_operation_xyz
  'x, y, z'

loop_
  _atom_site_type_symbol
  _atom_site_label
  _atom_site_symmetry_multiplicity
  _atom_site_fract_x
  _atom_site_fract_y
  _atom_site_fract_z
  _atom_site_occupancy
  V   V1        1.0  0.13920999692334154  0.0963035518351123  0.2664515202943674  1.0000
  V   V2        1.0  0.766608185608459  0.3773997841241638  0.38744789177635985  1.0000
  V   V3        1.0  0.2519542400857809  0.6271049715133621  0.5798039263321051  1.0000
  V   V4        1.0  0.3242336253485581  0.6249428002591508  0.09461264484119426  1.0000
  V   V5        1.0  0.7190403744611173  0.3693661290688852  0.8936353792067203  1.0000
  V   V6        1.0  0.20769381035107845  0.08386062484640637  0.7792561313543297  1.0000
  V   V7        1.0  0.7667797425752326  0.9149566466706992  0.23766178473894686  1.0000
  V   V8        1.0  0.8131567021947679  0.8933829486913389  0.7422972753987308  1.0000
  O   O1        1.0  0.7845430451331525  0.08918912341329668  0.4202714266188441  1.0000
  O   O2        1.0  0.8520572403002786  0.21996176201946382  0.672687991638099  1.0000
  O   O3        1.0  0.9424834882377313  0.8372728180253647  0.023454054753838882  1.0000
  O   O4        1.0  0.10897122940104793  0.38823602309501204  0.2929297605833188  1.0000
  O   O5        1.0  0.48004588698907674  0.8755286406746542  0.9040273265371388  1.0000
  O   O6        1.0  0.04721612780884571  0.22234928688757138  0.0032198787561822546  1.0000
  O   O7        1.0  0.442619475657827  0.5332669065854461  0.831143131128468  1.0000
  O   O8        1.0  0.16968841183325103  0.7902359126268548  0.2902390268946331  1.0000
  O   O9        1.0  0.3867879134792039  0.30696388808720476  0.5753715830203138  1.0000
  O   O10       1.0  0.920851897263491  0.5819504714834031  0.7109193348036784  1.0000
  O   O11       1.0  0.6250577715593026  0.6531298425745891  0.46122266541734125  1.0000
  O   O12       1.0  0.22068004189831372  0.9870547576818294  0.5512956427516467  1.0000
  O   O13       1.0  0.5195210384618903  0.1397714726330716  0.11429193086971481  1.0000
  O   O14       1.0  0.6580547949893473  0.44055655263970445  0.13917023006654122  1.0000
data_image157
_chemical_formula_structural       V8O14
_chemical_formula_sum              "V8 O14"
_cell_length_a       5.550582121701734
_cell_length_b       6.786413640792483
_cell_length_c       6.98693040473207
_cell_angle_alpha    64.37373990390658
_cell_angle_beta     70.29505848782973
_cell_angle_gamma    75.17998095895898

_space_group_name_H-M_alt    "P 1"
_space_group_IT_number       1

loop_
  _space_group_symop_operation_xyz
  'x, y, z'

loop_
  _atom_site_type_symbol
  _atom_site_label
  _atom_site_symmetry_multiplicity
  _atom_site_fract_x
  _atom_site_fract_y
  _atom_site_fract_z
  _atom_site_occupancy
  V   V1        1.0  0.20438479960634087  0.07931051116848199  0.2726372148665917  1.0000
  V   V2        1.0  0.7057142535926628  0.3426279845486085  0.41522266426132  1.0000
  V   V3        1.0  0.31463850776222113  0.6298294504131446  0.5665248123485812  1.0000
  V   V4        1.0  0.27089276804777956  0.6456277338057561  0.04188279877878446  1.0000
  V   V5        1.0  0.74403983969423  0.3798040973942258  0.9291970514355593  1.0000
  V   V6        1.0  0.1432498928641075  0.12362950364357264  0.7187712400101416  1.0000
  V   V7        1.0  0.8296557457416939  0.9087927442524852  0.28849753861085076  1.0000
  V   V8        1.0  0.7644803159447429  0.8983814315056367  0.7808973162405772  1.0000
  O   O1        1.0  0.8135264459271182  0.03730758063613558  0.48207636415679184  1.0000
  O   O2        1.0  0.8465504248965977  0.24850267832756362  0.6972235091476559  1.0000
  O   O3        1.0  0.9671028699733882  0.8350566721018966  0.9739526193713975  1.0000
  O   O4        1.0  0.12541232812484068  0.40747177737721135  0.21795469841304985  1.0000
  O   O5        1.0  0.4402840561427709  0.9164608433842838  0.8621818391164822  1.0000
  O   O6        1.0  0.057709644355693285  0.16784846290640074  0.010276369577906414  1.0000
  O   O7        1.0  0.4002728020083645  0.5060363272056952  0.8498944608430758  1.0000
  O   O8        1.0  0.1905954697278351  0.7556004881104396  0.28367575632394426  1.0000
  O   O9        1.0  0.34924815514490426  0.3294026174560954  0.5205996910437705  1.0000
  O   O10       1.0  0.9209325127394176  0.6180234127480639  0.7125493811756243  1.0000
  O   O11       1.0  0.693614630996912  0.6101623548832626  0.4042727231610994  1.0000
  O   O12       1.0  0.23435139367275157  0.936921707405707  0.5793327143309887  1.0000
  O   O13       1.0  0.5395421413321756  0.11720929527895572  0.1596541446370204  1.0000
  O   O14       1.0  0.6093208861157694  0.5073355323872993  0.14204687058359228  1.0000
data_image158
_chemical_formula_structural       V8O14
_chemical_formula_sum              "V8 O14"
_cell_length_a       5.550582121701734
_cell_length_b       6.786413640792483
_cell_length_c       6.98693040473207
_cell_angle_alpha    64.37373990390658
_cell_angle_beta     70.29505848782973
_cell_angle_gamma    75.17998095895898

_space_group_name_H-M_alt    "P 1"
_space_group_IT_number       1

loop_
  _space_group_symop_operation_xyz
  'x, y, z'

loop_
  _atom_site_type_symbol
  _atom_site_label
  _atom_site_symmetry_multiplicity
  _atom_site_fract_x
  _atom_site_fract_y
  _atom_site_fract_z
  _atom_site_occupancy
  V   V1        1.0  0.14429879821216843  0.11550536534485085  0.23267137550647543  1.0000
  V   V2        1.0  0.7630962210534101  0.356772137393706  0.4052824252908669  1.0000
  V   V3        1.0  0.22894088346235394  0.6431390214948506  0.5805713457158628  1.0000
  V   V4        1.0  0.3786412602317873  0.6597944671750853  0.07709333077650288  1.0000
  V   V5        1.0  0.6607553866714561  0.3408213171172394  0.9271977507191613  1.0000
  V   V6        1.0  0.21186424904762746  0.12449985387244178  0.7212985035080021  1.0000
  V   V7        1.0  0.7888019409558257  0.8788581634285387  0.3060804349980163  1.0000
  V   V8        1.0  0.8850095464292241  0.8280740745461193  0.7948734850201256  1.0000
  O   O1        1.0  0.7357174475932959  0.10450955595436968  0.4199706210992562  1.0000
  O   O2        1.0  0.8262023554178322  0.2223337614979397  0.7077589868201969  1.0000
  O   O3        1.0  0.01084703499450379  0.8243513415843162  0.9977312607812877  1.0000
  O   O4        1.0  0.08356571105659301  0.402830879245142  0.29428197638067777  1.0000
  O   O5        1.0  0.5198431444290637  0.9383681031024738  0.8230726992378233  1.0000
  O   O6        1.0  0.07983719610777136  0.1885435984547243  0.9760588001603636  1.0000
  O   O7        1.0  0.3367330618883536  0.5623060700035493  0.8124990536460817  1.0000
  O   O8        1.0  0.11461955101345712  0.7624326106089028  0.3426241624687619  1.0000
  O   O9        1.0  0.34337386639919215  0.3597417059939447  0.5456865442646818  1.0000
  O   O10       1.0  0.8274848923201765  0.6400228064142076  0.66224114341683  1.0000
  O   O11       1.0  0.6153424916809342  0.6689684553610696  0.42229004647987467  1.0000
  O   O12       1.0  0.16661303957475163  0.9401279903983463  0.5493706731261301  1.0000
  O   O13       1.0  0.5509053932604456  0.07013395815814785  0.14474339485709223  1.0000
  O   O14       1.0  0.7084562192748576  0.5111375308495849  0.09696071420454462  1.0000
data_image159
_chemical_formula_structural       V8O14
_chemical_formula_sum              "V8 O14"
_cell_length_a       5.550582121701734
_cell_length_b       6.786413640792483
_cell_length_c       6.98693040473207
_cell_angle_alpha    64.37373990390658
_cell_angle_beta     70.29505848782973
_cell_angle_gamma    75.17998095895898

_space_group_name_H-M_alt    "P 1"
_space_group_IT_number       1

loop_
  _space_group_symop_operation_xyz
  'x, y, z'

loop_
  _atom_site_type_symbol
  _atom_site_label
  _atom_site_symmetry_multiplicity
  _atom_site_fract_x
  _atom_site_fract_y
  _atom_site_fract_z
  _atom_site_occupancy
  V   V1        1.0  0.22276798855633131  0.15491478507166562  0.23743255219418746  1.0000
  V   V2        1.0  0.7069740310912468  0.32935383931488427  0.4270293263073382  1.0000
  V   V3        1.0  0.2856921936666448  0.7029838559079951  0.5653583331540246  1.0000
  V   V4        1.0  0.268733198447811  0.581619459134256  0.10916302417811546  1.0000
  V   V5        1.0  0.7574096221614524  0.37634854414011637  0.8857311291303518  1.0000
  V   V6        1.0  0.1856831412724686  0.10597766358594961  0.7629302953843599  1.0000
  V   V7        1.0  0.8376110928991871  0.9072030350515132  0.23322122580591273  1.0000
  V   V8        1.0  0.7399070263510515  0.86743000693463  0.7634440780292798  1.0000
  O   O1        1.0  0.7907605156559915  0.03917738879374913  0.42632754570594084  1.0000
  O   O2        1.0  0.8314555599759064  0.22561794415831038  0.6813631115637347  1.0000
  O   O3        1.0  0.973837599524042  0.784877514984677  0.9833207301756743  1.0000
  O   O4        1.0  0.03854181134069718  0.4289736535985674  0.28555819169022334  1.0000
  O   O5        1.0  0.39334603293378667  0.8727714477800469  0.8989693028456226  1.0000
  O   O6        1.0  0.05128913131202177  0.13826847849241894  0.007640967574660313  1.0000
  O   O7        1.0  0.3486093269679692  0.5107564120641861  0.8801143054868089  1.0000
  O   O8        1.0  0.2054864086833399  0.7412197191054213  0.3164096736656589  1.0000
  O   O9        1.0  0.35601522857276774  0.344135349694145  0.5760437440566686  1.0000
  O   O10       1.0  0.9500599385087822  0.6143578805509281  0.7323475989545537  1.0000
  O   O11       1.0  0.673240939494549  0.6428446178884789  0.4507329520164461  1.0000
  O   O12       1.0  0.2769103271284093  0.01850475181822797  0.5188901698545956  1.0000
  O   O13       1.0  0.5689173026675046  0.11349809789942028  0.1005520130998359  1.0000
  O   O14       1.0  0.6342266157988279  0.4687765732530425  0.13360500242649495  1.0000
data_image160
_chemical_formula_structural       V8O14
_chemical_formula_sum              "V8 O14"
_cell_length_a       5.550582121701734
_cell_length_b       6.786413640792483
_cell_length_c       6.98693040473207
_cell_angle_alpha    64.37373990390658
_cell_angle_beta     70.29505848782973
_cell_angle_gamma    75.17998095895898

_space_group_name_H-M_alt    "P 1"
_space_group_IT_number       1

loop_
  _space_group_symop_operation_xyz
  'x, y, z'

loop_
  _atom_site_type_symbol
  _atom_site_label
  _atom_site_symmetry_multiplicity
  _atom_site_fract_x
  _atom_site_fract_y
  _atom_site_fract_z
  _atom_site_occupancy
  V   V1        1.0  0.186646936759235  0.11001880521740784  0.25539244624398605  1.0000
  V   V2        1.0  0.7551626919888158  0.35940613779810804  0.4046023802472522  1.0000
  V   V3        1.0  0.26909692640650107  0.6174714476562704  0.6035750191020757  1.0000
  V   V4        1.0  0.2877467084728429  0.665822239336615  0.05241321561682579  1.0000
  V   V5        1.0  0.7103756492002251  0.3828152223307769  0.928366508110894  1.0000
  V   V6        1.0  0.1727251355066775  0.12878766642034611  0.7315360710179926  1.0000
  V   V7        1.0  0.8196170080632036  0.8869286892862722  0.2550165744127661  1.0000
  V   V8        1.0  0.8230121275033938  0.8690245155300641  0.7639871660073366  1.0000
  O   O1        1.0  0.7657312110610534  0.028811093197962132  0.4598888351596145  1.0000
  O   O2        1.0  0.8378706514979829  0.21373755810054504  0.6912362438563685  1.0000
  O   O3        1.0  0.9249083640548181  0.8720434626169798  0.971558395652592  1.0000
  O   O4        1.0  0.11118201271382767  0.3900868374350679  0.24555984845330556  1.0000
  O   O5        1.0  0.44099319342035537  0.9255124342600973  0.8683539897430336  1.0000
  O   O6        1.0  0.08957950212128564  0.15399220370898806  0.9835876498697542  1.0000
  O   O7        1.0  0.3475430712136638  0.527982377871628  0.8728306386929658  1.0000
  O   O8        1.0  0.1595407482220145  0.6876488054908416  0.3548381470768866  1.0000
  O   O9        1.0  0.44031736733674404  0.2829629342838154  0.5186295620771342  1.0000
  O   O10       1.0  0.9322824721113921  0.5857966155028327  0.7211925821728358  1.0000
  O   O11       1.0  0.6073937564164887  0.6593954027000505  0.4790477299302327  1.0000
  O   O12       1.0  0.1810331745348369  0.9493072376855963  0.5648464487957948  1.0000
  O   O13       1.0  0.5386882773402886  0.1186355065176437  0.1329897105037933  1.0000
  O   O14       1.0  0.6425539642168582  0.5704387425199273  0.09414590789161445  1.0000
data_image161
_chemical_formula_structural       V8O14
_chemical_formula_sum              "V8 O14"
_cell_length_a       5.550582121701734
_cell_length_b       6.786413640792483
_cell_length_c       6.98693040473207
_cell_angle_alpha    64.37373990390658
_cell_angle_beta     70.29505848782973
_cell_angle_gamma    75.17998095895898

_space_group_name_H-M_alt    "P 1"
_space_group_IT_number       1

loop_
  _space_group_symop_operation_xyz
  'x, y, z'

loop_
  _atom_site_type_symbol
  _atom_site_label
  _atom_site_symmetry_multiplicity
  _atom_site_fract_x
  _atom_site_fract_y
  _atom_site_fract_z
  _atom_site_occupancy
  V   V1        1.0  0.1913222352303735  0.12025457773103562  0.2700087437274039  1.0000
  V   V2        1.0  0.7003786327417592  0.39522706418069814  0.434454169965862  1.0000
  V   V3        1.0  0.28909556817434284  0.6552858540120682  0.5459379645323389  1.0000
  V   V4        1.0  0.2863199179408675  0.606432015129691  0.09989083395119527  1.0000
  V   V5        1.0  0.693509256136555  0.3539916005420614  0.8588634943523977  1.0000
  V   V6        1.0  0.2021821863271094  0.09903894877041775  0.7909681291406169  1.0000
  V   V7        1.0  0.8557450928236809  0.9506925223974443  0.19714725424402152  1.0000
  V   V8        1.0  0.8335851411640004  0.867891105996211  0.7729839201100128  1.0000
  O   O1        1.0  0.8043179428838315  0.0039752095393802206  0.45739819539477716  1.0000
  O   O2        1.0  0.852121954933335  0.19501173557632046  0.666218794923481  1.0000
  O   O3        1.0  0.9687411780032336  0.8119044335452406  0.009674352514791984  1.0000
  O   O4        1.0  0.07273344267191671  0.4118126703796178  0.2887028154528302  1.0000
  O   O5        1.0  0.4785794627148984  0.8807558946036675  0.8792534633495158  1.0000
  O   O6        1.0  0.04437548876535649  0.1964456753602062  0.049033762703166936  1.0000
  O   O7        1.0  0.28770390141169344  0.5225697743541363  0.8516726768407644  1.0000
  O   O8        1.0  0.10283943305119723  0.708888995272743  0.32570300207958197  1.0000
  O   O9        1.0  0.3831299606871967  0.30253886302468486  0.5807991822489473  1.0000
  O   O10       1.0  0.86130619367574  0.6623852523581432  0.6938252434405254  1.0000
  O   O11       1.0  0.6546685501733621  0.6829622111551159  0.39894148258755513  1.0000
  O   O12       1.0  0.2320040047827942  0.9541649019568088  0.599712563761347  1.0000
  O   O13       1.0  0.5363287151096382  0.0862349011723367  0.12875920512513916  1.0000
  O   O14       1.0  0.6522182339454203  0.4594956433608028  0.10507537832775536  1.0000
data_image162
_chemical_formula_structural       V8O14
_chemical_formula_sum              "V8 O14"
_cell_length_a       5.550582121701734
_cell_length_b       6.786413640792483
_cell_length_c       6.98693040473207
_cell_angle_alpha    64.37373990390658
_cell_angle_beta     70.29505848782973
_cell_angle_gamma    75.17998095895898

_space_group_name_H-M_alt    "P 1"
_space_group_IT_number       1

loop_
  _space_group_symop_operation_xyz
  'x, y, z'

loop_
  _atom_site_type_symbol
  _atom_site_label
  _atom_site_symmetry_multiplicity
  _atom_site_fract_x
  _atom_site_fract_y
  _atom_site_fract_z
  _atom_site_occupancy
  V   V1        1.0  0.18700820376925884  0.17075650356043798  0.1959344913433334  1.0000
  V   V2        1.0  0.7342567655007448  0.36333195920090294  0.41738215305107845  1.0000
  V   V3        1.0  0.29171119573421  0.6111653295883811  0.6174015208124638  1.0000
  V   V4        1.0  0.26084504762813476  0.6570787725368881  0.09907121191174496  1.0000
  V   V5        1.0  0.7736487193612215  0.35969327317564304  0.88065346678456  1.0000
  V   V6        1.0  0.16965046258991515  0.042945868573193054  0.792496114540453  1.0000
  V   V7        1.0  0.7544677983537588  0.8785862435888143  0.2584344904734951  1.0000
  V   V8        1.0  0.813438482867751  0.908849310815855  0.72838496732281  1.0000
  O   O1        1.0  0.8104904207613185  0.9998336382421191  0.44160284060665755  1.0000
  O   O2        1.0  0.8642529835115995  0.17745429433321477  0.6948386133770803  1.0000
  O   O3        1.0  0.9247121533177994  0.8560599382850194  0.004002322852411311  1.0000
  O   O4        1.0  0.0902273044089257  0.3933844089780976  0.3051066256194265  1.0000
  O   O5        1.0  0.45412517235163524  0.9261497748786384  0.8680815542534122  1.0000
  O   O6        1.0  0.057978306697028005  0.23551059712599665  0.9546431465688814  1.0000
  O   O7        1.0  0.41537565901761964  0.5106929512051689  0.8706391732485006  1.0000
  O   O8        1.0  0.2359607705742619  0.7816405384039321  0.27426404330216064  1.0000
  O   O9        1.0  0.33926925686615  0.3164105170274532  0.5978593124565007  1.0000
  O   O10       1.0  0.9093777498453077  0.6266214802940526  0.7051731502723841  1.0000
  O   O11       1.0  0.679728446792705  0.6205725841939684  0.44910627596947955  1.0000
  O   O12       1.0  0.21284318242910247  0.933402209955081  0.5315777403676178  1.0000
  O   O13       1.0  0.5106967795709718  0.1443649781916656  0.12594570870539812  1.0000
  O   O14       1.0  0.6378069564993267  0.5297384092892118  0.15425291273553876  1.0000
data_image163
_chemical_formula_structural       V8O14
_chemical_formula_sum              "V8 O14"
_cell_length_a       5.550582121701734
_cell_length_b       6.786413640792483
_cell_length_c       6.98693040473207
_cell_angle_alpha    64.37373990390658
_cell_angle_beta     70.29505848782973
_cell_angle_gamma    75.17998095895898

_space_group_name_H-M_alt    "P 1"
_space_group_IT_number       1

loop_
  _space_group_symop_operation_xyz
  'x, y, z'

loop_
  _atom_site_type_symbol
  _atom_site_label
  _atom_site_symmetry_multiplicity
  _atom_site_fract_x
  _atom_site_fract_y
  _atom_site_fract_z
  _atom_site_occupancy
  V   V1        1.0  0.18512335753454986  0.09980576132905855  0.23724263851038443  1.0000
  V   V2        1.0  0.7168340840010369  0.3453895658314357  0.39876065487849427  1.0000
  V   V3        1.0  0.28300377278795236  0.6274334398248289  0.5780714893462042  1.0000
  V   V4        1.0  0.29002234102439184  0.6465779271682602  0.10125335450942054  1.0000
  V   V5        1.0  0.6813230504638563  0.37449828768217214  0.8761228859108293  1.0000
  V   V6        1.0  0.18375588781906274  0.0964958087332518  0.7739964654044932  1.0000
  V   V7        1.0  0.753142493814951  0.8842315603087127  0.26393762316173625  1.0000
  V   V8        1.0  0.8463724862276213  0.9329622511223226  0.7297680986732619  1.0000
  O   O1        1.0  0.8213077689286357  0.9902731199393361  0.4562303985181846  1.0000
  O   O2        1.0  0.8353885947237492  0.2640170203987894  0.6688878653969298  1.0000
  O   O3        1.0  0.01675978907835418  0.8430382338913206  0.9845942160133277  1.0000
  O   O4        1.0  0.06047253957546011  0.4364658530253334  0.27517192511301775  1.0000
  O   O5        1.0  0.47748733138197264  0.882918361432963  0.8615749644300037  1.0000
  O   O6        1.0  0.9891288931895087  0.17042817212139544  0.07129416338193886  1.0000
  O   O7        1.0  0.37763144182981884  0.5293959963376486  0.8446657962733456  1.0000
  O   O8        1.0  0.2998377427205137  0.7617152933553066  0.2948768731349925  1.0000
  O   O9        1.0  0.3457819769487455  0.3540766676873054  0.5522582671089489  1.0000
  O   O10       1.0  0.9109878805493168  0.6399553560391019  0.7958394243787337  1.0000
  O   O11       1.0  0.6618623250176999  0.5995255913873959  0.4770738461100414  1.0000
  O   O12       1.0  0.2823899227307759  0.9377703135721243  0.5392424182857466  1.0000
  O   O13       1.0  0.5412041260800643  0.1244907524204958  0.12528700941991272  1.0000
  O   O14       1.0  0.6648212089398933  0.47838606734502076  0.12427677175705265  1.0000
data_image164
_chemical_formula_structural       V8O14
_chemical_formula_sum              "V8 O14"
_cell_length_a       5.550582121701734
_cell_length_b       6.786413640792483
_cell_length_c       6.98693040473207
_cell_angle_alpha    64.37373990390658
_cell_angle_beta     70.29505848782973
_cell_angle_gamma    75.17998095895898

_space_group_name_H-M_alt    "P 1"
_space_group_IT_number       1

loop_
  _space_group_symop_operation_xyz
  'x, y, z'

loop_
  _atom_site_type_symbol
  _atom_site_label
  _atom_site_symmetry_multiplicity
  _atom_site_fract_x
  _atom_site_fract_y
  _atom_site_fract_z
  _atom_site_occupancy
  V   V1        1.0  0.19014919862282564  0.10740579942245852  0.24882651544759787  1.0000
  V   V2        1.0  0.7115573347340233  0.3691476288245545  0.4307177259709048  1.0000
  V   V3        1.0  0.3056502042113866  0.6538690672759383  0.5319745051392553  1.0000
  V   V4        1.0  0.22067112495799926  0.6334031206577032  0.08051693487714459  1.0000
  V   V5        1.0  0.7359134530695154  0.365667415157261  0.9074651396413763  1.0000
  V   V6        1.0  0.24628271073819064  0.053521723924145996  0.790046558456094  1.0000
  V   V7        1.0  0.8086128089187455  0.9466466572479845  0.23458312502310444  1.0000
  V   V8        1.0  0.7790474568811778  0.8595975612141308  0.7413518736340008  1.0000
  O   O1        1.0  0.8210777353989145  0.07168241672772906  0.4305312671880098  1.0000
  O   O2        1.0  0.8303835317848486  0.19416269465764843  0.7023777340982561  1.0000
  O   O3        1.0  0.9711238092149577  0.8694780319815505  0.9652820212764279  1.0000
  O   O4        1.0  0.08649914138765936  0.3976711259694476  0.2927348823246037  1.0000
  O   O5        1.0  0.4992911147832955  0.8773962956209315  0.911069368647378  1.0000
  O   O6        1.0  0.0462218670584458  0.1514376281969268  0.04232032624971931  1.0000
  O   O7        1.0  0.3579719752022922  0.533484397911708  0.8458637550175528  1.0000
  O   O8        1.0  0.17192803705356413  0.8111714261664942  0.2717986451614895  1.0000
  O   O9        1.0  0.3864083681523208  0.3336591285418805  0.6214651994898763  1.0000
  O   O10       1.0  0.9122733162826285  0.6015827022751633  0.7283504689813686  1.0000
  O   O11       1.0  0.6445538175378711  0.6565345675630732  0.43904778528445754  1.0000
  O   O12       1.0  0.17635466415376114  0.9556915278580225  0.5650393979221221  1.0000
  O   O13       1.0  0.526171462465357  0.12393075070734322  0.115556549244007  1.0000
  O   O14       1.0  0.6641666326866279  0.4922979958827056  0.11938727241193668  1.0000
data_image165
_chemical_formula_structural       V8O14
_chemical_formula_sum              "V8 O14"
_cell_length_a       5.550582121701734
_cell_length_b       6.786413640792483
_cell_length_c       6.98693040473207
_cell_angle_alpha    64.37373990390658
_cell_angle_beta     70.29505848782973
_cell_angle_gamma    75.17998095895898

_space_group_name_H-M_alt    "P 1"
_space_group_IT_number       1

loop_
  _space_group_symop_operation_xyz
  'x, y, z'

loop_
  _atom_site_type_symbol
  _atom_site_label
  _atom_site_symmetry_multiplicity
  _atom_site_fract_x
  _atom_site_fract_y
  _atom_site_fract_z
  _atom_site_occupancy
  V   V1        1.0  0.22539889580406966  0.08562058285534035  0.21051453628880096  1.0000
  V   V2        1.0  0.747820349030253  0.37685489368012137  0.37907453473214825  1.0000
  V   V3        1.0  0.28101824831113237  0.6242766374644528  0.6406895147988882  1.0000
  V   V4        1.0  0.2621539514980344  0.6774911111649468  0.0756724418169819  1.0000
  V   V5        1.0  0.7222045022829029  0.3834570960813042  0.8959935624536144  1.0000
  V   V6        1.0  0.20219854664316578  0.11518401581968643  0.6698630333773681  1.0000
  V   V7        1.0  0.8233735600064234  0.8774376501725106  0.28825412487473845  1.0000
  V   V8        1.0  0.7660160432902795  0.9001980241010608  0.8013859888151841  1.0000
  O   O1        1.0  0.7822814578958568  0.06987075151931482  0.411083797179496  1.0000
  O   O2        1.0  0.8285468433022052  0.23036133494444602  0.6913150735524499  1.0000
  O   O3        1.0  0.8980287211207537  0.8145549197386842  0.020213341019191144  1.0000
  O   O4        1.0  0.11748639347979989  0.38588929968819285  0.26735718564597893  1.0000
  O   O5        1.0  0.4221241210490292  0.8917916715499873  0.8500609200594316  1.0000
  O   O6        1.0  0.03238864624965452  0.16892603605582338  0.9886281542709813  1.0000
  O   O7        1.0  0.33950556152375844  0.5130899740062355  0.9013935593509379  1.0000
  O   O8        1.0  0.17301459146711898  0.7300408770372692  0.36591300011817307  1.0000
  O   O9        1.0  0.4283108888088673  0.31602755921182146  0.5757869180533562  1.0000
  O   O10       1.0  0.9016179575159887  0.601810626261043  0.7205027052600013  1.0000
  O   O11       1.0  0.6481675331071297  0.6451610402642906  0.4507459849127539  1.0000
  O   O12       1.0  0.24877646840072032  0.9428461792608874  0.5378159328885822  1.0000
  O   O13       1.0  0.5492822772037292  0.08144320360915948  0.10973233607320919  1.0000
  O   O14       1.0  0.6203383603841324  0.5215809113552493  0.1638160118175891  1.0000
data_image166
_chemical_formula_structural       V8O14
_chemical_formula_sum              "V8 O14"
_cell_length_a       5.550582121701734
_cell_length_b       6.786413640792483
_cell_length_c       6.98693040473207
_cell_angle_alpha    64.37373990390658
_cell_angle_beta     70.29505848782973
_cell_angle_gamma    75.17998095895898

_space_group_name_H-M_alt    "P 1"
_space_group_IT_number       1

loop_
  _space_group_symop_operation_xyz
  'x, y, z'

loop_
  _atom_site_type_symbol
  _atom_site_label
  _atom_site_symmetry_multiplicity
  _atom_site_fract_x
  _atom_site_fract_y
  _atom_site_fract_z
  _atom_site_occupancy
  V   V1        1.0  0.14526792201064267  0.1345095286911653  0.2472167227193171  1.0000
  V   V2        1.0  0.7480672829007836  0.3456860189495276  0.4497403323322074  1.0000
  V   V3        1.0  0.29283268982945004  0.654561172514108  0.5380520808347758  1.0000
  V   V4        1.0  0.31684715827553656  0.6666949066851608  0.030217680062660755  1.0000
  V   V5        1.0  0.6603770897051154  0.37114762199310525  0.9352519936852702  1.0000
  V   V6        1.0  0.20577610317547507  0.05919884434545059  0.804316465563872  1.0000
  V   V7        1.0  0.7913462514968188  0.8838375563609185  0.26571938374173765  1.0000
  V   V8        1.0  0.8630257267572303  0.8792243340391097  0.7482245663690231  1.0000
  O   O1        1.0  0.7576257403523281  0.04237948026873051  0.454307501631808  1.0000
  O   O2        1.0  0.7929196542414847  0.1897005946791715  0.7353656583901185  1.0000
  O   O3        1.0  0.9563032709038376  0.8105763800004435  0.016534326285517764  1.0000
  O   O4        1.0  0.14146069451974705  0.38371116688485984  0.25353516524691555  1.0000
  O   O5        1.0  0.5045238370844033  0.915958689951371  0.8289086328012157  1.0000
  O   O6        1.0  0.9579121020631659  0.1717473321012374  0.0354582533873491  1.0000
  O   O7        1.0  0.3623846849121066  0.5655134364023917  0.8328224417498625  1.0000
  O   O8        1.0  0.1787808686073187  0.7963241400763456  0.26748780557488716  1.0000
  O   O9        1.0  0.3677539983953966  0.34629691996288436  0.5993546020315959  1.0000
  O   O10       1.0  0.9462015545840552  0.5718736742197845  0.7023548742984785  1.0000
  O   O11       1.0  0.6601831869562711  0.6401006354748678  0.41075089433163336  1.0000
  O   O12       1.0  0.23099137474341636  0.9780289391853234  0.5059671179837284  1.0000
  O   O13       1.0  0.5267742648243873  0.12989770977004506  0.10673345258748246  1.0000
  O   O14       1.0  0.6183243466177537  0.5198533045320485  0.12119997803109084  1.0000
data_image167
_chemical_formula_structural       V8O14
_chemical_formula_sum              "V8 O14"
_cell_length_a       5.550582121701734
_cell_length_b       6.786413640792483
_cell_length_c       6.98693040473207
_cell_angle_alpha    64.37373990390658
_cell_angle_beta     70.29505848782973
_cell_angle_gamma    75.17998095895898

_space_group_name_H-M_alt    "P 1"
_space_group_IT_number       1

loop_
  _space_group_symop_operation_xyz
  'x, y, z'

loop_
  _atom_site_type_symbol
  _atom_site_label
  _atom_site_symmetry_multiplicity
  _atom_site_fract_x
  _atom_site_fract_y
  _atom_site_fract_z
  _atom_site_occupancy
  V   V1        1.0  0.2038393689796071  0.09674390037030978  0.25470062698616  1.0000
  V   V2        1.0  0.7468175386955919  0.33774157477868977  0.4023305248182822  1.0000
  V   V3        1.0  0.2958129802120073  0.6268220554139996  0.6070541172419412  1.0000
  V   V4        1.0  0.2979016557882211  0.6363943519933843  0.13781631601523778  1.0000
  V   V5        1.0  0.7878081264413929  0.35522340140637426  0.914863533219003  1.0000
  V   V6        1.0  0.18529577563770436  0.09373458456781868  0.7408704886112828  1.0000
  V   V7        1.0  0.8016187590121299  0.9027909506759217  0.2438740085393452  1.0000
  V   V8        1.0  0.7581085448412173  0.8873948302394722  0.7605198213550081  1.0000
  O   O1        1.0  0.785105766374151  0.03283759424717284  0.45602895376702934  1.0000
  O   O2        1.0  0.8325050552554456  0.26155599147130715  0.6762380799332177  1.0000
  O   O3        1.0  0.9771062359990116  0.8552801115370605  0.9677015831986165  1.0000
  O   O4        1.0  0.026669421068376265  0.4481264258893831  0.17599024438365546  1.0000
  O   O5        1.0  0.43473909413069123  0.8551137298472731  0.8757459017536275  1.0000
  O   O6        1.0  0.06523344433167678  0.21160646668896274  0.008798231059379833  1.0000
  O   O7        1.0  0.38485295789946655  0.5776832323378666  0.8375443107473108  1.0000
  O   O8        1.0  0.2009977729498469  0.8071881197901712  0.28912593318357  1.0000
  O   O9        1.0  0.2883778513248816  0.3721950390558937  0.5530611641358847  1.0000
  O   O10       1.0  0.9022714495008438  0.614325287198002  0.6907669172501693  1.0000
  O   O11       1.0  0.6159932636591187  0.6678320524476228  0.42070467969596614  1.0000
  O   O12       1.0  0.2044898664553511  0.9768230393262554  0.5612817475255031  1.0000
  O   O13       1.0  0.5268749898927987  0.13913868695438583  0.07741446457080069  1.0000
  O   O14       1.0  0.5826533759537074  0.42907742282822026  0.1429177709877276  1.0000
data_image168
_chemical_formula_structural       V8O14
_chemical_formula_sum              "V8 O14"
_cell_length_a       5.550582121701734
_cell_length_b       6.786413640792483
_cell_length_c       6.98693040473207
_cell_angle_alpha    64.37373990390658
_cell_angle_beta     70.29505848782973
_cell_angle_gamma    75.17998095895898

_space_group_name_H-M_alt    "P 1"
_space_group_IT_number       1

loop_
  _space_group_symop_operation_xyz
  'x, y, z'

loop_
  _atom_site_type_symbol
  _atom_site_label
  _atom_site_symmetry_multiplicity
  _atom_site_fract_x
  _atom_site_fract_y
  _atom_site_fract_z
  _atom_site_occupancy
  V   V1        1.0  0.2324206601218327  0.07714815717316113  0.21762350206652153  1.0000
  V   V2        1.0  0.7116006063374719  0.3899592703136848  0.3816334029317894  1.0000
  V   V3        1.0  0.24650973367478385  0.6487521283543767  0.6088596546210229  1.0000
  V   V4        1.0  0.27730920007769194  0.633477482838698  0.051398179167873544  1.0000
  V   V5        1.0  0.6962314518194382  0.3828530631296692  0.9142127721043396  1.0000
  V   V6        1.0  0.21638768043318884  0.0843578740137332  0.7792733736618314  1.0000
  V   V7        1.0  0.8379548325249992  0.8819854032474992  0.26655179580821986  1.0000
  V   V8        1.0  0.805955843899749  0.937636999044448  0.7308708701861036  1.0000
  O   O1        1.0  0.7736494443481947  0.05397721741542572  0.43347911759100194  1.0000
  O   O2        1.0  0.8231318324565022  0.21319787765914275  0.6734650869284943  1.0000
  O   O3        1.0  0.9894879071717351  0.8277565043907757  0.9916142674201868  1.0000
  O   O4        1.0  0.08046942598406064  0.36626417929957  0.29861305288751483  1.0000
  O   O5        1.0  0.49986106400115676  0.8762846629619987  0.8975169864283171  1.0000
  O   O6        1.0  0.0043235767275996186  0.1529252842109473  0.040476757109514636  1.0000
  O   O7        1.0  0.3290896717567561  0.5100629068547794  0.8600565673715298  1.0000
  O   O8        1.0  0.22019922666577693  0.7568072202462075  0.29585181446770853  1.0000
  O   O9        1.0  0.31391357701937955  0.38240622724201784  0.5950701594795977  1.0000
  O   O10       1.0  0.930602733174105  0.5968393148146643  0.7661908793810914  1.0000
  O   O11       1.0  0.6341937038301063  0.6516242714452708  0.42531085570245625  1.0000
  O   O12       1.0  0.2292654453679886  0.9249149962937975  0.5540806757484227  1.0000
  O   O13       1.0  0.5664446999649375  0.10463497480146078  0.11967569294524752  1.0000
  O   O14       1.0  0.5991272912457255  0.5240103321679962  0.13431924556313737  1.0000
data_image169
_chemical_formula_structural       V8O14
_chemical_formula_sum              "V8 O14"
_cell_length_a       5.550582121701734
_cell_length_b       6.786413640792483
_cell_length_c       6.98693040473207
_cell_angle_alpha    64.37373990390658
_cell_angle_beta     70.29505848782973
_cell_angle_gamma    75.17998095895898

_space_group_name_H-M_alt    "P 1"
_space_group_IT_number       1

loop_
  _space_group_symop_operation_xyz
  'x, y, z'

loop_
  _atom_site_type_symbol
  _atom_site_label
  _atom_site_symmetry_multiplicity
  _atom_site_fract_x
  _atom_site_fract_y
  _atom_site_fract_z
  _atom_site_occupancy
  V   V1        1.0  0.21172285649261557  0.1329242657368025  0.22767751659759736  1.0000
  V   V2        1.0  0.734082214588028  0.34596246444113987  0.4391559745122388  1.0000
  V   V3        1.0  0.2610926314711697  0.6101885867627803  0.5997472614910306  1.0000
  V   V4        1.0  0.29979469145477167  0.6514516883526972  0.07164820020851898  1.0000
  V   V5        1.0  0.6905442661630928  0.38376888025304134  0.904906269372193  1.0000
  V   V6        1.0  0.16733840728831076  0.06698933557820025  0.7685930470811481  1.0000
  V   V7        1.0  0.8166796254281753  0.9049162231882495  0.23817352981328738  1.0000
  V   V8        1.0  0.8393728627657476  0.8854346651328631  0.7377610757929348  1.0000
  O   O1        1.0  0.7862722012913667  0.11746733332598679  0.3813598629733841  1.0000
  O   O2        1.0  0.796864709591947  0.21135288845190534  0.7200350601046505  1.0000
  O   O3        1.0  0.9767462439058272  0.7934615138919998  0.00769916157443884  1.0000
  O   O4        1.0  0.12936998835447036  0.4082259933996645  0.29888630805296085  1.0000
  O   O5        1.0  0.4243060350613399  0.9542457068514184  0.866165008263887  1.0000
  O   O6        1.0  0.9692808547108555  0.1498100140984023  0.055688906567714545  1.0000
  O   O7        1.0  0.4158344750306053  0.602256115471082  0.7925441886943821  1.0000
  O   O8        1.0  0.17035829538094838  0.81977411686248  0.3198791384262942  1.0000
  O   O9        1.0  0.3663653117174882  0.31148284648859775  0.6002303261444926  1.0000
  O   O10       1.0  0.9644418080022076  0.5501484348667022  0.7689787655949678  1.0000
  O   O11       1.0  0.6287796534027612  0.6272261653123145  0.4021822445057202  1.0000
  O   O12       1.0  0.2223989821959332  0.9231620551345319  0.5794731371267842  1.0000
  O   O13       1.0  0.5054879151536348  0.14624723852409882  0.05389298251145321  1.0000
  O   O14       1.0  0.6491393307469172  0.5054066535905638  0.11494759514909908  1.0000
data_image170
_chemical_formula_structural       V8O14
_chemical_formula_sum              "V8 O14"
_cell_length_a       5.550582121701734
_cell_length_b       6.786413640792483
_cell_length_c       6.98693040473207
_cell_angle_alpha    64.37373990390658
_cell_angle_beta     70.29505848782973
_cell_angle_gamma    75.17998095895898

_space_group_name_H-M_alt    "P 1"
_space_group_IT_number       1

loop_
  _space_group_symop_operation_xyz
  'x, y, z'

loop_
  _atom_site_type_symbol
  _atom_site_label
  _atom_site_symmetry_multiplicity
  _atom_site_fract_x
  _atom_site_fract_y
  _atom_site_fract_z
  _atom_site_occupancy
  V   V1        1.0  0.18574900311028747  0.14424085488741126  0.2142021415315828  1.0000
  V   V2        1.0  0.7220963330669097  0.3871127606127506  0.36518998341820724  1.0000
  V   V3        1.0  0.2377430336532804  0.6436364529097465  0.6249017751074002  1.0000
  V   V4        1.0  0.2859819150592487  0.6089118501659352  0.1014884700253943  1.0000
  V   V5        1.0  0.7116127670034017  0.335179608853585  0.9101096590759095  1.0000
  V   V6        1.0  0.22928594000093133  0.11107688042545197  0.7446587970398352  1.0000
  V   V7        1.0  0.8374414643182295  0.8557923861368074  0.29904735322164694  1.0000
  V   V8        1.0  0.8026739141591291  0.9011414670635185  0.7598855824078717  1.0000
  O   O1        1.0  0.8347220426200421  0.10455699503687339  0.4124124967162454  1.0000
  O   O2        1.0  0.8217555304586812  0.24694481335168772  0.6929365373969228  1.0000
  O   O3        1.0  0.9638305104502696  0.8508785760287143  0.9771494291417245  1.0000
  O   O4        1.0  0.060766540813525734  0.4557177531301297  0.32857285596739044  1.0000
  O   O5        1.0  0.43192140746379265  0.8641708982316676  0.8813444775339165  1.0000
  O   O6        1.0  0.051015398851744984  0.15871651636097936  0.012909188754264271  1.0000
  O   O7        1.0  0.3413371619226929  0.4569747788663578  0.8672820840293459  1.0000
  O   O8        1.0  0.16584993975671172  0.8088868684248869  0.30333424312441254  1.0000
  O   O9        1.0  0.35932759800343145  0.3366751033840928  0.5409233189699774  1.0000
  O   O10       1.0  0.8321649283937955  0.6643759783772494  0.6957500800443874  1.0000
  O   O11       1.0  0.636751072900605  0.6444198198898754  0.4286665918170001  1.0000
  O   O12       1.0  0.29155261920857806  0.9654752337507905  0.510043083076401  1.0000
  O   O13       1.0  0.5926289655092151  0.07096503682025977  0.11068037273724812  1.0000
  O   O14       1.0  0.6459728559073927  0.4800272053002958  0.09457013581966246  1.0000
data_image171
_chemical_formula_structural       V8O14
_chemical_formula_sum              "V8 O14"
_cell_length_a       5.550582121701734
_cell_length_b       6.786413640792483
_cell_length_c       6.98693040473207
_cell_angle_alpha    64.37373990390658
_cell_angle_beta     70.29505848782973
_cell_angle_gamma    75.17998095895898

_space_group_name_H-M_alt    "P 1"
_space_group_IT_number       1

loop_
  _space_group_symop_operation_xyz
  'x, y, z'

loop_
  _atom_site_type_symbol
  _atom_site_label
  _atom_site_symmetry_multiplicity
  _atom_site_fract_x
  _atom_site_fract_y
  _atom_site_fract_z
  _atom_site_occupancy
  V   V1        1.0  0.25525821340625504  0.13106724343971093  0.18371137171399055  1.0000
  V   V2        1.0  0.7354298567544746  0.3481015422882289  0.41447969315827  1.0000
  V   V3        1.0  0.2920013249257305  0.6029090082868529  0.5817909907418602  1.0000
  V   V4        1.0  0.30258558786411094  0.6337309411098792  0.09163447020230094  1.0000
  V   V5        1.0  0.7332532981992147  0.37110666968350403  0.9324188806921011  1.0000
  V   V6        1.0  0.1476766352792976  0.10426601470685334  0.731137126041962  1.0000
  V   V7        1.0  0.8263593477824275  0.8833732966458032  0.2778994343778986  1.0000
  V   V8        1.0  0.7377141831526633  0.8930254413227413  0.7418668270648755  1.0000
  O   O1        1.0  0.6672327485393797  0.07151827334834941  0.47940990237768677  1.0000
  O   O2        1.0  0.826686332526563  0.22866344486408488  0.6769598151509284  1.0000
  O   O3        1.0  0.9511502384911439  0.8328248321511424  0.9732690083917811  1.0000
  O   O4        1.0  0.11419284417548506  0.381304664831146  0.29325723020500105  1.0000
  O   O5        1.0  0.3867366975419608  0.9320791380823726  0.884892522774577  1.0000
  O   O6        1.0  0.012926151636936696  0.19174456795118988  0.018003735778927107  1.0000
  O   O7        1.0  0.4198849723598748  0.4925544231097339  0.8754266898308838  1.0000
  O   O8        1.0  0.20045731536696706  0.8154421409697792  0.29107048093731447  1.0000
  O   O9        1.0  0.3685450227886381  0.3401405514611488  0.5406303171942575  1.0000
  O   O10       1.0  0.9613931680740393  0.6007852163743184  0.7549384064995219  1.0000
  O   O11       1.0  0.626809283077281  0.7046395604472849  0.46724421864569865  1.0000
  O   O12       1.0  0.2226345925616676  0.9728695410806056  0.5486583203050064  1.0000
  O   O13       1.0  0.5940769521193986  0.09312444844366508  0.09561447349995182  1.0000
  O   O14       1.0  0.6255356991785703  0.5177441239636533  0.15956762778331124  1.0000
data_image172
_chemical_formula_structural       V8O14
_chemical_formula_sum              "V8 O14"
_cell_length_a       5.550582121701734
_cell_length_b       6.786413640792483
_cell_length_c       6.98693040473207
_cell_angle_alpha    64.37373990390658
_cell_angle_beta     70.29505848782973
_cell_angle_gamma    75.17998095895898

_space_group_name_H-M_alt    "P 1"
_space_group_IT_number       1

loop_
  _space_group_symop_operation_xyz
  'x, y, z'

loop_
  _atom_site_type_symbol
  _atom_site_label
  _atom_site_symmetry_multiplicity
  _atom_site_fract_x
  _atom_site_fract_y
  _atom_site_fract_z
  _atom_site_occupancy
  V   V1        1.0  0.18603346795312012  0.08721675049709154  0.22973700736749386  1.0000
  V   V2        1.0  0.7034494889647613  0.39397953470588315  0.3691762519001974  1.0000
  V   V3        1.0  0.28998460755844774  0.6161415356311777  0.6342961607587371  1.0000
  V   V4        1.0  0.29058227495172684  0.5859801961561117  0.1604232380926812  1.0000
  V   V5        1.0  0.7159731189755322  0.39570430656439426  0.8862909215152878  1.0000
  V   V6        1.0  0.22570572518296714  0.06316287293802893  0.7329426304645297  1.0000
  V   V7        1.0  0.8030924363027618  0.9232137557787218  0.23587195889324267  1.0000
  V   V8        1.0  0.8004762798332069  0.9421088172689527  0.718566367710619  1.0000
  O   O1        1.0  0.7994059950523913  0.07042909876670425  0.42773155703837834  1.0000
  O   O2        1.0  0.7754747291610747  0.24079559848030074  0.7200442113120987  1.0000
  O   O3        1.0  0.9595957903255726  0.8302526286232106  0.9954588942034504  1.0000
  O   O4        1.0  0.06975910456430402  0.3309334706932019  0.3398461016193536  1.0000
  O   O5        1.0  0.495589621756847  0.9091626364769437  0.8584686716105994  1.0000
  O   O6        1.0  0.9777151715673139  0.186757321003864  0.027992126923071955  1.0000
  O   O7        1.0  0.35151967732760947  0.5045609179568739  0.900350219678635  1.0000
  O   O8        1.0  0.17578021886738668  0.7741289292746227  0.31140915635361105  1.0000
  O   O9        1.0  0.3736061412037197  0.3244092745601291  0.5487731934961382  1.0000
  O   O10       1.0  0.9479819254077589  0.6306207026962533  0.7042361000789872  1.0000
  O   O11       1.0  0.6116010112056839  0.6792894608394237  0.4501486319631056  1.0000
  O   O12       1.0  0.2888803527437599  0.9487903910070882  0.5143286282303102  1.0000
  O   O13       1.0  0.5458858098781499  0.10346765764219329  0.10439840985738943  1.0000
  O   O14       1.0  0.6527758199577028  0.5140244069090003  0.12363844896402439  1.0000
data_image173
_chemical_formula_structural       V8O14
_chemical_formula_sum              "V8 O14"
_cell_length_a       5.550582121701734
_cell_length_b       6.786413640792483
_cell_length_c       6.98693040473207
_cell_angle_alpha    64.37373990390658
_cell_angle_beta     70.29505848782973
_cell_angle_gamma    75.17998095895898

_space_group_name_H-M_alt    "P 1"
_space_group_IT_number       1

loop_
  _space_group_symop_operation_xyz
  'x, y, z'

loop_
  _atom_site_type_symbol
  _atom_site_label
  _atom_site_symmetry_multiplicity
  _atom_site_fract_x
  _atom_site_fract_y
  _atom_site_fract_z
  _atom_site_occupancy
  V   V1        1.0  0.21936506695024818  0.1645120401219746  0.24842186890113052  1.0000
  V   V2        1.0  0.6976515710881421  0.35712698604190873  0.40746968866315714  1.0000
  V   V3        1.0  0.2558601287732917  0.6346136504676451  0.5720156796364791  1.0000
  V   V4        1.0  0.3377938673114536  0.6369100895360588  0.09498964349864074  1.0000
  V   V5        1.0  0.67669131603928  0.3896734833373578  0.8915092326426568  1.0000
  V   V6        1.0  0.19062943660906592  0.09318057564126397  0.7651927014776235  1.0000
  V   V7        1.0  0.8677648447387265  0.8617577179181299  0.2604966622992866  1.0000
  V   V8        1.0  0.8114805481902311  0.8709305641623519  0.7533611871251185  1.0000
  O   O1        1.0  0.7477036021426099  0.9828571269672615  0.48960633614730553  1.0000
  O   O2        1.0  0.8050458548467173  0.23898929625647158  0.6660219990900133  1.0000
  O   O3        1.0  0.9689599716173236  0.8427246352106371  0.0033560700314370084  1.0000
  O   O4        1.0  0.04979865874643488  0.4483018342563844  0.22783043237372863  1.0000
  O   O5        1.0  0.4382210787159846  0.9112590293207564  0.9353841138310854  1.0000
  O   O6        1.0  0.048209043660082856  0.16137535787372748  0.0359999987691972  1.0000
  O   O7        1.0  0.41122645623231663  0.5994356220469237  0.8235990630893556  1.0000
  O   O8        1.0  0.18314596113374715  0.7567144474509163  0.3061015929172369  1.0000
  O   O9        1.0  0.3495461201118585  0.3622789455202931  0.5416365914046185  1.0000
  O   O10       1.0  0.9122651412199063  0.5695076758498383  0.7048974472646913  1.0000
  O   O11       1.0  0.6139564554898868  0.6795267219048288  0.3927122525235198  1.0000
  O   O12       1.0  0.19031496548870006  0.9407602751452555  0.5566071458276746  1.0000
  O   O13       1.0  0.5495536688494151  0.1126943649635691  0.1142513102592405  1.0000
  O   O14       1.0  0.6273681343671726  0.4429515153410527  0.14041224951782802  1.0000
data_image174
_chemical_formula_structural       V8O14
_chemical_formula_sum              "V8 O14"
_cell_length_a       5.550582121701734
_cell_length_b       6.786413640792483
_cell_length_c       6.98693040473207
_cell_angle_alpha    64.37373990390658
_cell_angle_beta     70.29505848782973
_cell_angle_gamma    75.17998095895898

_space_group_name_H-M_alt    "P 1"
_space_group_IT_number       1

loop_
  _space_group_symop_operation_xyz
  'x, y, z'

loop_
  _atom_site_type_symbol
  _atom_site_label
  _atom_site_symmetry_multiplicity
  _atom_site_fract_x
  _atom_site_fract_y
  _atom_site_fract_z
  _atom_site_occupancy
  V   V1        1.0  0.19335459325131754  0.09155553240036478  0.26187404447275475  1.0000
  V   V2        1.0  0.7541972432974526  0.47096198770637937  0.31692445588862156  1.0000
  V   V3        1.0  0.31095555153307025  0.636754743604908  0.5813282201680785  1.0000
  V   V4        1.0  0.2581001770680107  0.611335153583537  0.10532083334266715  1.0000
  V   V5        1.0  0.6978313651523079  0.3629784299570718  0.9289124360078468  1.0000
  V   V6        1.0  0.2614458183565417  0.15576123927692825  0.7397280228664711  1.0000
  V   V7        1.0  0.7940992784156153  0.8841134656669046  0.2718201873334956  1.0000
  V   V8        1.0  0.8307832754060784  0.8829067111700065  0.7360211298808337  1.0000
  O   O1        1.0  0.7909539023140444  0.04433662943156688  0.41660608609398336  1.0000
  O   O2        1.0  0.8107487785050305  0.18316942813561385  0.7222121475049071  1.0000
  O   O3        1.0  0.8613025383166583  0.7520717561928627  0.06154601189626696  1.0000
  O   O4        1.0  0.07231892326558453  0.38174935440573105  0.2704857654614899  1.0000
  O   O5        1.0  0.46720911704429946  0.8982685187850766  0.8799055549970177  1.0000
  O   O6        1.0  0.018583080933767825  0.1651574630736973  0.004413990974772572  1.0000
  O   O7        1.0  0.33877389027876215  0.4612408740015819  0.8649337285007886  1.0000
  O   O8        1.0  0.17542044587020025  0.7857769990552801  0.27662156895332646  1.0000
  O   O9        1.0  0.3555312779001145  0.3648407968120665  0.5035649248062135  1.0000
  O   O10       1.0  0.9017539378658435  0.6263843668171006  0.7219168157142887  1.0000
  O   O11       1.0  0.7056454173735646  0.6269585342101908  0.5036062811416193  1.0000
  O   O12       1.0  0.1698660241358635  0.966279255087934  0.5554527992810653  1.0000
  O   O13       1.0  0.5311818341418659  0.06550000284510674  0.16935075154705398  1.0000
  O   O14       1.0  0.5708285207678481  0.44958320230566057  0.14839507629455617  1.0000
data_image175
_chemical_formula_structural       V8O14
_chemical_formula_sum              "V8 O14"
_cell_length_a       5.550582121701734
_cell_length_b       6.786413640792483
_cell_length_c       6.98693040473207
_cell_angle_alpha    64.37373990390658
_cell_angle_beta     70.29505848782973
_cell_angle_gamma    75.17998095895898

_space_group_name_H-M_alt    "P 1"
_space_group_IT_number       1

loop_
  _space_group_symop_operation_xyz
  'x, y, z'

loop_
  _atom_site_type_symbol
  _atom_site_label
  _atom_site_symmetry_multiplicity
  _atom_site_fract_x
  _atom_site_fract_y
  _atom_site_fract_z
  _atom_site_occupancy
  V   V1        1.0  0.22426053968182255  0.13239576943728032  0.21573111612686108  1.0000
  V   V2        1.0  0.7101270868362877  0.34682318483263047  0.4066185011739264  1.0000
  V   V3        1.0  0.27091110928986334  0.6556485131956411  0.5623235312575808  1.0000
  V   V4        1.0  0.2696251964961617  0.6231318801475147  0.10284270512374163  1.0000
  V   V5        1.0  0.6731197925393361  0.3942411523454186  0.8676667171258192  1.0000
  V   V6        1.0  0.20699918063307615  0.09132392305148015  0.7581069291361004  1.0000
  V   V7        1.0  0.8289171384467747  0.8865524703025189  0.25935367021551303  1.0000
  V   V8        1.0  0.825270270884317  0.9171309859993265  0.7932144100934511  1.0000
  O   O1        1.0  0.8063661374969311  0.07208425087531398  0.44169006641382863  1.0000
  O   O2        1.0  0.8651549474432066  0.22648302742945958  0.6706225481318789  1.0000
  O   O3        1.0  0.9294145146667335  0.7569644281911952  0.014824347543220817  1.0000
  O   O4        1.0  0.10138029666696989  0.3792668254330865  0.28677826475232526  1.0000
  O   O5        1.0  0.45345689413966733  0.9066045108583988  0.928539394641918  1.0000
  O   O6        1.0  0.04567727933791764  0.16469649188521063  0.03620586193259721  1.0000
  O   O7        1.0  0.32949684512695393  0.4814517089564401  0.8671081016820786  1.0000
  O   O8        1.0  0.22555293444486768  0.7625239364302538  0.29953572976866233  1.0000
  O   O9        1.0  0.38984953736756417  0.32195234745606577  0.6219077608006829  1.0000
  O   O10       1.0  0.8725209917434043  0.6963088627353986  0.6865881565324669  1.0000
  O   O11       1.0  0.6293849165660294  0.6511223979724168  0.42073388741171797  1.0000
  O   O12       1.0  0.22644103018417586  0.9938928120359034  0.50535123171538  1.0000
  O   O13       1.0  0.5807361050621155  0.07934697772398143  0.0872885168050495  1.0000
  O   O14       1.0  0.6186634648918916  0.4319807825949659  0.15323390442670096  1.0000
data_image176
_chemical_formula_structural       V8O14
_chemical_formula_sum              "V8 O14"
_cell_length_a       5.550582121701734
_cell_length_b       6.786413640792483
_cell_length_c       6.98693040473207
_cell_angle_alpha    64.37373990390658
_cell_angle_beta     70.29505848782973
_cell_angle_gamma    75.17998095895898

_space_group_name_H-M_alt    "P 1"
_space_group_IT_number       1

loop_
  _space_group_symop_operation_xyz
  'x, y, z'

loop_
  _atom_site_type_symbol
  _atom_site_label
  _atom_site_symmetry_multiplicity
  _atom_site_fract_x
  _atom_site_fract_y
  _atom_site_fract_z
  _atom_site_occupancy
  V   V1        1.0  0.21739111969298597  0.044623571514090146  0.24591096667265333  1.0000
  V   V2        1.0  0.7094113848670269  0.3878514568948773  0.40346595439617844  1.0000
  V   V3        1.0  0.320337060999371  0.6085768543272732  0.5945705356958798  1.0000
  V   V4        1.0  0.2516095161030339  0.6372441990961725  0.0866552305783157  1.0000
  V   V5        1.0  0.745243432798719  0.375068395230616  0.9368010590715337  1.0000
  V   V6        1.0  0.14309477990655717  0.1290090622987187  0.7358736779714284  1.0000
  V   V7        1.0  0.7880884108194799  0.9438383065924086  0.2364402654147585  1.0000
  V   V8        1.0  0.711885299701521  0.9326751476910464  0.7955021748266238  1.0000
  O   O1        1.0  0.8185540296945754  0.09112057686091851  0.3915310146683416  1.0000
  O   O2        1.0  0.8459664866531417  0.2520257425221983  0.6754868160303519  1.0000
  O   O3        1.0  0.9716867502715053  0.7936542284998903  0.9872678304012058  1.0000
  O   O4        1.0  0.10268223048885475  0.39138191506879766  0.23734226641330916  1.0000
  O   O5        1.0  0.4055049407774371  0.8780389978804041  0.8506767157706637  1.0000
  O   O6        1.0  0.035464329667698545  0.1836229136940865  0.9933178414832758  1.0000
  O   O7        1.0  0.41273937226853363  0.5414229995138949  0.8691413279003688  1.0000
  O   O8        1.0  0.26982063530371286  0.7082583440517812  0.32612368305467704  1.0000
  O   O9        1.0  0.39680439460792094  0.31580823073305136  0.6043981864210893  1.0000
  O   O10       1.0  0.964926431932283  0.618324732301284  0.7461738374805286  1.0000
  O   O11       1.0  0.740974938171977  0.6338235982395487  0.40785231651725706  1.0000
  O   O12       1.0  0.3632095498623164  0.9739286641681183  0.4946618737406983  1.0000
  O   O13       1.0  0.5708529151978086  0.09763118483003701  0.0478976826461072  1.0000
  O   O14       1.0  0.5636647999858303  0.41114952761832896  0.17001634788568262  1.0000
data_image177
_chemical_formula_structural       V8O14
_chemical_formula_sum              "V8 O14"
_cell_length_a       5.550582121701734
_cell_length_b       6.786413640792483
_cell_length_c       6.98693040473207
_cell_angle_alpha    64.37373990390658
_cell_angle_beta     70.29505848782973
_cell_angle_gamma    75.17998095895898

_space_group_name_H-M_alt    "P 1"
_space_group_IT_number       1

loop_
  _space_group_symop_operation_xyz
  'x, y, z'

loop_
  _atom_site_type_symbol
  _atom_site_label
  _atom_site_symmetry_multiplicity
  _atom_site_fract_x
  _atom_site_fract_y
  _atom_site_fract_z
  _atom_site_occupancy
  V   V1        1.0  0.14809138862633875  0.14073507500394006  0.2163173349645174  1.0000
  V   V2        1.0  0.6874090844621211  0.3764576709963114  0.41614324892851123  1.0000
  V   V3        1.0  0.2785493522127884  0.6330029484658156  0.5897821634138243  1.0000
  V   V4        1.0  0.3159863499600768  0.6135940263291569  0.1364549947300714  1.0000
  V   V5        1.0  0.715394953543173  0.36235501225380057  0.887739249448393  1.0000
  V   V6        1.0  0.26053468573783967  0.07016301440954018  0.7706293983432992  1.0000
  V   V7        1.0  0.8141131016870435  0.894461388451192  0.22048334489377452  1.0000
  V   V8        1.0  0.8423761264863963  0.9123394942310946  0.746137636971888  1.0000
  O   O1        1.0  0.777748118411202  0.05364859254549291  0.4133771838673973  1.0000
  O   O2        1.0  0.7729300693161032  0.21202264043942406  0.712773895423348  1.0000
  O   O3        1.0  0.9846734673706682  0.76026685155369  0.006746656423129105  1.0000
  O   O4        1.0  0.03380544188995208  0.4051912621738758  0.31839711590336023  1.0000
  O   O5        1.0  0.466971557814192  0.8937340678159389  0.8954889920405276  1.0000
  O   O6        1.0  0.9961960588246574  0.17798157728182218  0.9531562961619673  1.0000
  O   O7        1.0  0.39636891697190224  0.5075495881303709  0.8545358226396579  1.0000
  O   O8        1.0  0.21168776708373507  0.8108704731307357  0.27982542873178445  1.0000
  O   O9        1.0  0.32256704155751414  0.34805506884193826  0.5504416562431907  1.0000
  O   O10       1.0  0.915134289503454  0.6075644457126707  0.7136938439392874  1.0000
  O   O11       1.0  0.6606374986694419  0.638836591936885  0.4587756523306674  1.0000
  O   O12       1.0  0.20953239414300662  0.9673346737448255  0.537271917900641  1.0000
  O   O13       1.0  0.5231282064848415  0.17507857125805465  0.11830091836956176  1.0000
  O   O14       1.0  0.6262651451382054  0.5025650668904305  0.1577441170853906  1.0000
data_image178
_chemical_formula_structural       V8O14
_chemical_formula_sum              "V8 O14"
_cell_length_a       5.550582121701734
_cell_length_b       6.786413640792483
_cell_length_c       6.98693040473207
_cell_angle_alpha    64.37373990390658
_cell_angle_beta     70.29505848782973
_cell_angle_gamma    75.17998095895898

_space_group_name_H-M_alt    "P 1"
_space_group_IT_number       1

loop_
  _space_group_symop_operation_xyz
  'x, y, z'

loop_
  _atom_site_type_symbol
  _atom_site_label
  _atom_site_symmetry_multiplicity
  _atom_site_fract_x
  _atom_site_fract_y
  _atom_site_fract_z
  _atom_site_occupancy
  V   V1        1.0  0.1661081873557054  0.091535869459656  0.28015717409042296  1.0000
  V   V2        1.0  0.7420544592213983  0.35570633815213293  0.39838088594281756  1.0000
  V   V3        1.0  0.3260829389101121  0.608683134314739  0.6145897731334568  1.0000
  V   V4        1.0  0.3161914735692012  0.6587652960386992  0.07145117956094525  1.0000
  V   V5        1.0  0.7406299391495664  0.35054889687144836  0.9019773185621237  1.0000
  V   V6        1.0  0.16990699393306138  0.10877283658699749  0.7394493390323845  1.0000
  V   V7        1.0  0.7542728587715878  0.9346473091773855  0.26355602284180174  1.0000
  V   V8        1.0  0.8090942536665663  0.879029467828485  0.7470717927374346  1.0000
  O   O1        1.0  0.7283518821143865  0.06872127645219356  0.45531554977069205  1.0000
  O   O2        1.0  0.8050901893293346  0.24324421931820422  0.6574201310695709  1.0000
  O   O3        1.0  0.8871922221207269  0.8348392004121066  0.9859493840722765  1.0000
  O   O4        1.0  0.1250116477429872  0.3732820426048309  0.26898199445263493  1.0000
  O   O5        1.0  0.44793442616335505  0.9231131602323677  0.9027901716931314  1.0000
  O   O6        1.0  0.047129190907062544  0.23193129214781674  0.9898664415812631  1.0000
  O   O7        1.0  0.3981909493939263  0.5125296497084335  0.8431605879971131  1.0000
  O   O8        1.0  0.17536396788859673  0.7648684067355532  0.29162270529772405  1.0000
  O   O9        1.0  0.38638450934484314  0.3733845699661964  0.5419989282494075  1.0000
  O   O10       1.0  0.9364612502247758  0.599273877993545  0.6976935947180096  1.0000
  O   O11       1.0  0.7248463321825867  0.6616284016890763  0.3962397818294059  1.0000
  O   O12       1.0  0.24927015090851454  0.8986966813919762  0.5946239359817644  1.0000
  O   O13       1.0  0.5088835456725517  0.1411140183388426  0.12323439996021628  1.0000
  O   O14       1.0  0.598525553658573  0.48867930912545915  0.11526580899459746  1.0000
data_image179
_chemical_formula_structural       V8O14
_chemical_formula_sum              "V8 O14"
_cell_length_a       5.550582121701734
_cell_length_b       6.786413640792483
_cell_length_c       6.98693040473207
_cell_angle_alpha    64.37373990390658
_cell_angle_beta     70.29505848782973
_cell_angle_gamma    75.17998095895898

_space_group_name_H-M_alt    "P 1"
_space_group_IT_number       1

loop_
  _space_group_symop_operation_xyz
  'x, y, z'

loop_
  _atom_site_type_symbol
  _atom_site_label
  _atom_site_symmetry_multiplicity
  _atom_site_fract_x
  _atom_site_fract_y
  _atom_site_fract_z
  _atom_site_occupancy
  V   V1        1.0  0.19465660264697665  0.10237091110334144  0.2524983091819875  1.0000
  V   V2        1.0  0.7153592255349585  0.3555195121524068  0.4278304392465737  1.0000
  V   V3        1.0  0.24937662101280783  0.6304519354606154  0.6053854204851655  1.0000
  V   V4        1.0  0.3245678801217571  0.6397143365477855  0.07934297392718172  1.0000
  V   V5        1.0  0.6659966247381367  0.37740403726221794  0.9191682824584678  1.0000
  V   V6        1.0  0.19597742489946018  0.11487870515122992  0.7106799794869693  1.0000
  V   V7        1.0  0.8050313936668557  0.8965591235138651  0.2800255840409181  1.0000
  V   V8        1.0  0.8324438561056335  0.9177836441850112  0.7368688640223916  1.0000
  O   O1        1.0  0.7954484433248421  0.06630147317391512  0.45243858243872576  1.0000
  O   O2        1.0  0.8789385206074789  0.22099457914856624  0.6932656932701616  1.0000
  O   O3        1.0  0.02387464270485551  0.7946780131181334  0.9724176981521316  1.0000
  O   O4        1.0  0.10692483393026929  0.3705646511341652  0.27056351303334025  1.0000
  O   O5        1.0  0.4886966896614534  0.9178628974016049  0.8670762428157416  1.0000
  O   O6        1.0  0.014356989932899909  0.2260101810978136  0.991907819020832  1.0000
  O   O7        1.0  0.3683285990473523  0.46518414144178  0.8519543082597649  1.0000
  O   O8        1.0  0.21082260998597457  0.796428348434322  0.27942032621538504  1.0000
  O   O9        1.0  0.40496654719610337  0.334949811904659  0.5215466271601845  1.0000
  O   O10       1.0  0.8520469984451583  0.6508158877475834  0.7021824257034232  1.0000
  O   O11       1.0  0.6194754503204292  0.6467811198265446  0.42627462151750856  1.0000
  O   O12       1.0  0.21442512203976455  0.9157746002462418  0.5435060856243493  1.0000
  O   O13       1.0  0.5677056999756948  0.06519954412779852  0.1545257031116983  1.0000
  O   O14       1.0  0.6080848423057101  0.4931641946266267  0.14446446274893388  1.0000
data_image180
_chemical_formula_structural       V8O14
_chemical_formula_sum              "V8 O14"
_cell_length_a       5.550582121701734
_cell_length_b       6.786413640792483
_cell_length_c       6.98693040473207
_cell_angle_alpha    64.37373990390658
_cell_angle_beta     70.29505848782973
_cell_angle_gamma    75.17998095895898

_space_group_name_H-M_alt    "P 1"
_space_group_IT_number       1

loop_
  _space_group_symop_operation_xyz
  'x, y, z'

loop_
  _atom_site_type_symbol
  _atom_site_label
  _atom_site_symmetry_multiplicity
  _atom_site_fract_x
  _atom_site_fract_y
  _atom_site_fract_z
  _atom_site_occupancy
  V   V1        1.0  0.20180489547121097  0.11090243263058545  0.2439653210370768  1.0000
  V   V2        1.0  0.6737182694779353  0.38348518994885544  0.45988195006597693  1.0000
  V   V3        1.0  0.2427781364069537  0.6138958913510745  0.6090709764718831  1.0000
  V   V4        1.0  0.2723846098261825  0.6164509367082986  0.1110914221836247  1.0000
  V   V5        1.0  0.7370485585044346  0.3983316375167476  0.8945484554219165  1.0000
  V   V6        1.0  0.2461522968657946  0.043781000638993525  0.7359802882026778  1.0000
  V   V7        1.0  0.8417605866530049  0.9071928278178525  0.18255635910687798  1.0000
  V   V8        1.0  0.807324708965128  0.9618959406915333  0.7209679868062372  1.0000
  O   O1        1.0  0.8541209980111505  0.052444025397413635  0.40279548523730707  1.0000
  O   O2        1.0  0.7461799070624244  0.20531105773273312  0.756322073209686  1.0000
  O   O3        1.0  0.9964795087930474  0.7951206855619865  0.9519970391460918  1.0000
  O   O4        1.0  0.06067260474072565  0.3782152787964478  0.2972007547513505  1.0000
  O   O5        1.0  0.4911137302618219  0.8650245570895201  0.8587755246997599  1.0000
  O   O6        1.0  0.0974848892678481  0.16280769100260753  0.9865208108681203  1.0000
  O   O7        1.0  0.4156495167076227  0.5201941475494293  0.8750269687750925  1.0000
  O   O8        1.0  0.16372463138405918  0.7948208398981602  0.32960785037281815  1.0000
  O   O9        1.0  0.34306403432834365  0.32072569210976015  0.551957659815822  1.0000
  O   O10       1.0  0.8975409830074929  0.6584571487830745  0.7048382303159928  1.0000
  O   O11       1.0  0.6149574786492275  0.6626536076997318  0.4531703430477569  1.0000
  O   O12       1.0  0.1581079807216865  0.9965401676862278  0.5566125031435586  1.0000
  O   O13       1.0  0.5547204752656425  0.13154753023462074  0.11132398237509322  1.0000
  O   O14       1.0  0.6312334666846564  0.41529993246391433  0.20009035223563976  1.0000
data_image181
_chemical_formula_structural       V8O14
_chemical_formula_sum              "V8 O14"
_cell_length_a       5.550582121701734
_cell_length_b       6.786413640792483
_cell_length_c       6.98693040473207
_cell_angle_alpha    64.37373990390658
_cell_angle_beta     70.29505848782973
_cell_angle_gamma    75.17998095895898

_space_group_name_H-M_alt    "P 1"
_space_group_IT_number       1

loop_
  _space_group_symop_operation_xyz
  'x, y, z'

loop_
  _atom_site_type_symbol
  _atom_site_label
  _atom_site_symmetry_multiplicity
  _atom_site_fract_x
  _atom_site_fract_y
  _atom_site_fract_z
  _atom_site_occupancy
  V   V1        1.0  0.215724404163411  0.05449981103812211  0.24957475817469918  1.0000
  V   V2        1.0  0.7601354416683084  0.35264295330937534  0.3481143879859453  1.0000
  V   V3        1.0  0.3035273267344057  0.6485263174550125  0.5671438522101758  1.0000
  V   V4        1.0  0.2671523377537269  0.655820312841388  0.08995681712230891  1.0000
  V   V5        1.0  0.7497503599995087  0.39280032653258906  0.8741861093978902  1.0000
  V   V6        1.0  0.18312859404063533  0.11744956024113237  0.7580657500207568  1.0000
  V   V7        1.0  0.7455923999748827  0.9118164439751589  0.2673286999928537  1.0000
  V   V8        1.0  0.8380497505818882  0.886692457048425  0.7635760858371557  1.0000
  O   O1        1.0  0.7297834549875322  0.04497795125770443  0.48427743218961883  1.0000
  O   O2        1.0  0.8258162004419567  0.20083544880727275  0.7165532344211477  1.0000
  O   O3        1.0  0.9664834881014388  0.8291736673531419  0.9809519717506836  1.0000
  O   O4        1.0  0.0822814486868235  0.4005673726817279  0.2547002840965723  1.0000
  O   O5        1.0  0.42514123761897027  0.8740306444539051  0.959960055159143  1.0000
  O   O6        1.0  0.01863466836353498  0.14116387353997822  0.03962133236673514  1.0000
  O   O7        1.0  0.3730672587882953  0.5448716318476933  0.8450147473564689  1.0000
  O   O8        1.0  0.1409930941074088  0.7749921575963967  0.32329185001036487  1.0000
  O   O9        1.0  0.3780862450165318  0.32866760815296797  0.5974984212884177  1.0000
  O   O10       1.0  0.907756996479599  0.6232838539647972  0.7365758036016291  1.0000
  O   O11       1.0  0.6530999095811744  0.6468330320722144  0.46822864756168925  1.0000
  O   O12       1.0  0.1735746987887564  0.9819995570225417  0.5563964397921215  1.0000
  O   O13       1.0  0.5512376148845008  0.11539467783112706  0.10375743820206858  1.0000
  O   O14       1.0  0.6635092551526617  0.5043911806433169  0.09721297733005961  1.0000
data_image182
_chemical_formula_structural       V8O14
_chemical_formula_sum              "V8 O14"
_cell_length_a       5.550582121701734
_cell_length_b       6.786413640792483
_cell_length_c       6.98693040473207
_cell_angle_alpha    64.37373990390658
_cell_angle_beta     70.29505848782973
_cell_angle_gamma    75.17998095895898

_space_group_name_H-M_alt    "P 1"
_space_group_IT_number       1

loop_
  _space_group_symop_operation_xyz
  'x, y, z'

loop_
  _atom_site_type_symbol
  _atom_site_label
  _atom_site_symmetry_multiplicity
  _atom_site_fract_x
  _atom_site_fract_y
  _atom_site_fract_z
  _atom_site_occupancy
  V   V1        1.0  0.19727119485897548  0.1404919909947808  0.24024732101447419  1.0000
  V   V2        1.0  0.716157060759273  0.379166860308435  0.41551053467350263  1.0000
  V   V3        1.0  0.26795466312325716  0.666487470357756  0.5874201808980342  1.0000
  V   V4        1.0  0.295246341403142  0.6202373529648975  0.09206187582175093  1.0000
  V   V5        1.0  0.7304477302721946  0.34022568340221376  0.9097929596703322  1.0000
  V   V6        1.0  0.15898986945467508  0.12455945468033966  0.7512046195748672  1.0000
  V   V7        1.0  0.8283185537549006  0.8749043375187375  0.23189615078316345  1.0000
  V   V8        1.0  0.783651856543249  0.8572551606434411  0.7721353092788376  1.0000
  O   O1        1.0  0.7767733535739768  0.03930685708828857  0.42598075725333595  1.0000
  O   O2        1.0  0.7828721840454965  0.18581080715557732  0.7330782708292575  1.0000
  O   O3        1.0  0.964892709156316  0.8549547891205662  0.9718648684445061  1.0000
  O   O4        1.0  0.080720202280836  0.38994048561451333  0.27879645646428386  1.0000
  O   O5        1.0  0.43060338742118326  0.8620978727039859  0.8775383425013563  1.0000
  O   O6        1.0  0.083296471444203  0.1649526411761284  0.009282848377518046  1.0000
  O   O7        1.0  0.45530722663280365  0.5210834395705176  0.8289613766471357  1.0000
  O   O8        1.0  0.16329325070180684  0.7484351453815306  0.29850958584686116  1.0000
  O   O9        1.0  0.38018564151169354  0.35908748672868446  0.5948827071619951  1.0000
  O   O10       1.0  0.9479058392868419  0.5887053393791852  0.7228250854866691  1.0000
  O   O11       1.0  0.622232069738474  0.7026530539421458  0.4074405860861434  1.0000
  O   O12       1.0  0.2971716171481192  0.0021711279099270175  0.509002177268622  1.0000
  O   O13       1.0  0.5210124793651625  0.1082093697914161  0.1182677965693565  1.0000
  O   O14       1.0  0.6536922361864024  0.5347026516465656  0.13115288602766936  1.0000
data_image183
_chemical_formula_structural       V8O14
_chemical_formula_sum              "V8 O14"
_cell_length_a       5.550582121701734
_cell_length_b       6.786413640792483
_cell_length_c       6.98693040473207
_cell_angle_alpha    64.37373990390658
_cell_angle_beta     70.29505848782973
_cell_angle_gamma    75.17998095895898

_space_group_name_H-M_alt    "P 1"
_space_group_IT_number       1

loop_
  _space_group_symop_operation_xyz
  'x, y, z'

loop_
  _atom_site_type_symbol
  _atom_site_label
  _atom_site_symmetry_multiplicity
  _atom_site_fract_x
  _atom_site_fract_y
  _atom_site_fract_z
  _atom_site_occupancy
  V   V1        1.0  0.2051521891870621  0.11915337265908274  0.22845696265616153  1.0000
  V   V2        1.0  0.7510849353361769  0.4222525900717655  0.37397385570813274  1.0000
  V   V3        1.0  0.24727782927434885  0.609084108421652  0.5924072462553402  1.0000
  V   V4        1.0  0.2663573002766577  0.6460303897888952  0.11236577497921596  1.0000
  V   V5        1.0  0.6500785796115889  0.379584811979651  0.8990423468623104  1.0000
  V   V6        1.0  0.1978465588744526  0.06022820164627056  0.7650493390912291  1.0000
  V   V7        1.0  0.8179064702971295  0.9034391059534407  0.26772707779840077  1.0000
  V   V8        1.0  0.8737874597596647  0.9035300853293283  0.7435706130455302  1.0000
  O   O1        1.0  0.7894500385473204  0.08120227040026895  0.446227567582552  1.0000
  O   O2        1.0  0.8145768788049891  0.23157598621871453  0.6689948217593685  1.0000
  O   O3        1.0  0.02200068165634672  0.8011728509717632  0.9803667752388338  1.0000
  O   O4        1.0  0.06925165584715756  0.4138136809910714  0.28540763940408614  1.0000
  O   O5        1.0  0.55066647179689  0.8380530415591019  0.8700753719809327  1.0000
  O   O6        1.0  0.02861316914198784  0.15443741014078216  0.02377750706070543  1.0000
  O   O7        1.0  0.3131988257565047  0.493291875061583  0.8934505675915125  1.0000
  O   O8        1.0  0.16876244232490167  0.7777506916548432  0.30464754267325267  1.0000
  O   O9        1.0  0.3617225419143113  0.3420407965258525  0.61900875872584  1.0000
  O   O10       1.0  0.9001661566037621  0.6321818539912403  0.6909174728753155  1.0000
  O   O11       1.0  0.6174415655025827  0.676308303051334  0.40678727174422313  1.0000
  O   O12       1.0  0.2862139328804456  0.9406702239523995  0.5123218012512503  1.0000
  O   O13       1.0  0.5408036315062462  0.08852114906688316  0.10339958954044424  1.0000
  O   O14       1.0  0.5924594995429444  0.46562772403930125  0.16010426982572862  1.0000
data_image184
_chemical_formula_structural       V8O14
_chemical_formula_sum              "V8 O14"
_cell_length_a       5.550582121701734
_cell_length_b       6.786413640792483
_cell_length_c       6.98693040473207
_cell_angle_alpha    64.37373990390658
_cell_angle_beta     70.29505848782973
_cell_angle_gamma    75.17998095895898

_space_group_name_H-M_alt    "P 1"
_space_group_IT_number       1

loop_
  _space_group_symop_operation_xyz
  'x, y, z'

loop_
  _atom_site_type_symbol
  _atom_site_label
  _atom_site_symmetry_multiplicity
  _atom_site_fract_x
  _atom_site_fract_y
  _atom_site_fract_z
  _atom_site_occupancy
  V   V1        1.0  0.20579786049600188  0.05328064005907359  0.27375253848708225  1.0000
  V   V2        1.0  0.7674002296082713  0.393823517670249  0.4104278102275816  1.0000
  V   V3        1.0  0.27970673129319135  0.6350043627985141  0.5745846645764493  1.0000
  V   V4        1.0  0.29136507979011717  0.6309354095821879  0.10624921643905637  1.0000
  V   V5        1.0  0.7439832720184719  0.37087114615574535  0.9417279299558607  1.0000
  V   V6        1.0  0.20072747326758933  0.10034516312654428  0.7368530994208207  1.0000
  V   V7        1.0  0.8144594075745988  0.9007975105872997  0.19418289176015088  1.0000
  V   V8        1.0  0.758387454637805  0.8930096448742636  0.7046425265244084  1.0000
  O   O1        1.0  0.74005767071925  0.050953096580200696  0.4082102327788328  1.0000
  O   O2        1.0  0.8219300883150529  0.210480847138982  0.7063312642186924  1.0000
  O   O3        1.0  0.007838443885226365  0.8308145179755282  0.9497944917077984  1.0000
  O   O4        1.0  0.12093667901808298  0.39694876896913045  0.23837943130865613  1.0000
  O   O5        1.0  0.44168021630795223  0.8908944301403787  0.9536346480518281  1.0000
  O   O6        1.0  0.026132625499477483  0.16636030476302507  0.021448125894901714  1.0000
  O   O7        1.0  0.4403447242009905  0.5224468686716717  0.8547073767572699  1.0000
  O   O8        1.0  0.09961529012595469  0.7468615847747666  0.34638289565741814  1.0000
  O   O9        1.0  0.33494839971392726  0.3950631537586107  0.507753476263987  1.0000
  O   O10       1.0  0.9104864750126255  0.6018204077136804  0.7227392445052443  1.0000
  O   O11       1.0  0.681162720153562  0.6669908846550284  0.46062420376092517  1.0000
  O   O12       1.0  0.1830893677009683  0.9495012028821471  0.5776919859974446  1.0000
  O   O13       1.0  0.5146616969678716  0.1466830810117853  0.1762625817928737  1.0000
  O   O14       1.0  0.5615962909081813  0.5723089138191636  0.18299273121679474  1.0000
data_image185
_chemical_formula_structural       V8O14
_chemical_formula_sum              "V8 O14"
_cell_length_a       5.550582121701734
_cell_length_b       6.786413640792483
_cell_length_c       6.98693040473207
_cell_angle_alpha    64.37373990390658
_cell_angle_beta     70.29505848782973
_cell_angle_gamma    75.17998095895898

_space_group_name_H-M_alt    "P 1"
_space_group_IT_number       1

loop_
  _space_group_symop_operation_xyz
  'x, y, z'

loop_
  _atom_site_type_symbol
  _atom_site_label
  _atom_site_symmetry_multiplicity
  _atom_site_fract_x
  _atom_site_fract_y
  _atom_site_fract_z
  _atom_site_occupancy
  V   V1        1.0  0.21374756175860166  0.12110060258778223  0.22456189079546082  1.0000
  V   V2        1.0  0.7177096364045401  0.3624538180214102  0.4060701803658  1.0000
  V   V3        1.0  0.25540103309926365  0.6495233952966115  0.5770616260844671  1.0000
  V   V4        1.0  0.26963711377030475  0.6295724855978003  0.07834211701068249  1.0000
  V   V5        1.0  0.7213473234661444  0.3799967430077094  0.8892981123652586  1.0000
  V   V6        1.0  0.17906383614133395  0.12304225260675232  0.7314912964142318  1.0000
  V   V7        1.0  0.7992174721077474  0.9084178689239557  0.2775267543337237  1.0000
  V   V8        1.0  0.853458950097689  0.916019417263017  0.7485727993999591  1.0000
  O   O1        1.0  0.7907612639366427  0.07204274446647166  0.4513936744221546  1.0000
  O   O2        1.0  0.8038495840379098  0.23134194806446118  0.711292324284919  1.0000
  O   O3        1.0  0.9619759274576497  0.7967119228975196  0.03339045327769341  1.0000
  O   O4        1.0  0.11356776984174934  0.3558877758274157  0.33595559676537134  1.0000
  O   O5        1.0  0.46841691962536375  0.867427943270623  0.838381375989785  1.0000
  O   O6        1.0  0.9782985425456822  0.20908623239171276  0.022467688476449414  1.0000
  O   O7        1.0  0.4190926177912939  0.4901847208161628  0.8652305624178449  1.0000
  O   O8        1.0  0.18890131897801438  0.7812577856080329  0.31267855108891524  1.0000
  O   O9        1.0  0.3585742188268075  0.3369230796121405  0.5485746019356756  1.0000
  O   O10       1.0  0.901075221672573  0.5992808738897557  0.7653452156441  1.0000
  O   O11       1.0  0.6563469090126689  0.6468842137544426  0.4108107589889408  1.0000
  O   O12       1.0  0.23132028855665412  0.9010345229462076  0.5657203163038457  1.0000
  O   O13       1.0  0.5695848325441601  0.029222392335488  0.10292150319667255  1.0000
  O   O14       1.0  0.6175169122308631  0.47011341825030206  0.16594357864357964  1.0000
data_image186
_chemical_formula_structural       V8O14
_chemical_formula_sum              "V8 O14"
_cell_length_a       5.550582121701734
_cell_length_b       6.786413640792483
_cell_length_c       6.98693040473207
_cell_angle_alpha    64.37373990390658
_cell_angle_beta     70.29505848782973
_cell_angle_gamma    75.17998095895898

_space_group_name_H-M_alt    "P 1"
_space_group_IT_number       1

loop_
  _space_group_symop_operation_xyz
  'x, y, z'

loop_
  _atom_site_type_symbol
  _atom_site_label
  _atom_site_symmetry_multiplicity
  _atom_site_fract_x
  _atom_site_fract_y
  _atom_site_fract_z
  _atom_site_occupancy
  V   V1        1.0  0.1211261648995931  0.08758817669323239  0.2678897247999377  1.0000
  V   V2        1.0  0.7622822002901979  0.44131169887656374  0.3815089715495931  1.0000
  V   V3        1.0  0.263552232527545  0.6136835436139385  0.5876184724637079  1.0000
  V   V4        1.0  0.2748491557055155  0.6260654456338046  0.11487246298319985  1.0000
  V   V5        1.0  0.6793371017486528  0.38081887281978827  0.9219814104894222  1.0000
  V   V6        1.0  0.21702171125073047  0.09815776553205899  0.7177280997749836  1.0000
  V   V7        1.0  0.7918423822847892  0.9314135449577806  0.22651615505029818  1.0000
  V   V8        1.0  0.8382837425060595  0.8939641563232337  0.7047163761569788  1.0000
  O   O1        1.0  0.7570639017965112  0.047902206988993036  0.45676145349446073  1.0000
  O   O2        1.0  0.8347882878496418  0.2039272025104841  0.739720960899617  1.0000
  O   O3        1.0  0.010562437512848799  0.824444669034084  0.9732666600815942  1.0000
  O   O4        1.0  0.146255386719875  0.33596562965179816  0.31969699054787376  1.0000
  O   O5        1.0  0.48328150717159496  0.9403727154943132  0.8476796967062376  1.0000
  O   O6        1.0  0.024686392245480835  0.15551388677425984  0.021718472572739095  1.0000
  O   O7        1.0  0.38837656661022096  0.5072460924882531  0.8751666990744076  1.0000
  O   O8        1.0  0.14230237073438895  0.7909967115977982  0.2937375072353316  1.0000
  O   O9        1.0  0.40664770921936694  0.35852363822027417  0.5508747760634769  1.0000
  O   O10       1.0  0.9118957907156857  0.5921281502151181  0.761229665840603  1.0000
  O   O11       1.0  0.7408602716287894  0.6408455632544898  0.4630224683838749  1.0000
  O   O12       1.0  0.20284048451516523  0.9186069761356095  0.572600314065259  1.0000
  O   O13       1.0  0.5011547345805988  0.0760998822383176  0.14093670114358287  1.0000
  O   O14       1.0  0.6986080309638829  0.4435490626565981  0.1496233401612663  1.0000
data_image187
_chemical_formula_structural       V8O14
_chemical_formula_sum              "V8 O14"
_cell_length_a       5.550582121701734
_cell_length_b       6.786413640792483
_cell_length_c       6.98693040473207
_cell_angle_alpha    64.37373990390658
_cell_angle_beta     70.29505848782973
_cell_angle_gamma    75.17998095895898

_space_group_name_H-M_alt    "P 1"
_space_group_IT_number       1

loop_
  _space_group_symop_operation_xyz
  'x, y, z'

loop_
  _atom_site_type_symbol
  _atom_site_label
  _atom_site_symmetry_multiplicity
  _atom_site_fract_x
  _atom_site_fract_y
  _atom_site_fract_z
  _atom_site_occupancy
  V   V1        1.0  0.18304283182095804  0.14990805479425973  0.21476567499078722  1.0000
  V   V2        1.0  0.7071218627562352  0.38102802394265195  0.4046686241021345  1.0000
  V   V3        1.0  0.2418851644537876  0.6277183430629647  0.5988476436629451  1.0000
  V   V4        1.0  0.30012662889345987  0.6358529126274661  0.10521748862440257  1.0000
  V   V5        1.0  0.7114911968936379  0.37896407045728175  0.8822381554175167  1.0000
  V   V6        1.0  0.1698315533075663  0.09739377472323217  0.7746033796855311  1.0000
  V   V7        1.0  0.8440242922569557  0.8881655608575171  0.2418060148538107  1.0000
  V   V8        1.0  0.8566316909499262  0.8694508155966052  0.7548654861694399  1.0000
  O   O1        1.0  0.780906133582879  0.02720656709623352  0.4565469196241301  1.0000
  O   O2        1.0  0.8469668690081461  0.23230621938882787  0.6907614173411303  1.0000
  O   O3        1.0  0.021843365628207767  0.7881530630451798  0.99510599106217  1.0000
  O   O4        1.0  0.07794559784022291  0.38796681391517923  0.28395673630519364  1.0000
  O   O5        1.0  0.4481752656963954  0.9589444686993512  0.8535176078338933  1.0000
  O   O6        1.0  0.002521830585770888  0.14959212424919335  0.03488562604122973  1.0000
  O   O7        1.0  0.3679132053396966  0.49927560480930877  0.8822848654574552  1.0000
  O   O8        1.0  0.21065167475060856  0.8060857026242253  0.301678355544988  1.0000
  O   O9        1.0  0.34437369728041595  0.3421311785360487  0.5715611724373114  1.0000
  O   O10       1.0  0.890776804025278  0.6180348301641548  0.6525573225729396  1.0000
  O   O11       1.0  0.6281371268831124  0.6701927393814823  0.41782179874513675  1.0000
  O   O12       1.0  0.21425707811290096  0.932296856926847  0.5837049045967765  1.0000
  O   O13       1.0  0.5380866671148627  0.0605283824381296  0.1830768881343623  1.0000
  O   O14       1.0  0.6642928557359864  0.5043013910881415  0.08794638918303493  1.0000
data_image188
_chemical_formula_structural       V8O14
_chemical_formula_sum              "V8 O14"
_cell_length_a       5.550582121701734
_cell_length_b       6.786413640792483
_cell_length_c       6.98693040473207
_cell_angle_alpha    64.37373990390658
_cell_angle_beta     70.29505848782973
_cell_angle_gamma    75.17998095895898

_space_group_name_H-M_alt    "P 1"
_space_group_IT_number       1

loop_
  _space_group_symop_operation_xyz
  'x, y, z'

loop_
  _atom_site_type_symbol
  _atom_site_label
  _atom_site_symmetry_multiplicity
  _atom_site_fract_x
  _atom_site_fract_y
  _atom_site_fract_z
  _atom_site_occupancy
  V   V1        1.0  0.15297136072956818  0.1075710002145716  0.2371829273322095  1.0000
  V   V2        1.0  0.7435357834579415  0.37068448467958803  0.4110357062520035  1.0000
  V   V3        1.0  0.2871906580077824  0.6054090045913659  0.5754513930026505  1.0000
  V   V4        1.0  0.27615996627063977  0.6373735588914221  0.08428123667074099  1.0000
  V   V5        1.0  0.737356511642527  0.361892749809558  0.9137741649014471  1.0000
  V   V6        1.0  0.21980129590646005  0.09427242287288626  0.7544500156095189  1.0000
  V   V7        1.0  0.7920222435164807  0.9331727220892756  0.21308445409331617  1.0000
  V   V8        1.0  0.7855482659327994  0.900228743862945  0.7537232811286477  1.0000
  O   O1        1.0  0.7347224267836187  0.05077930485712266  0.4847063156210435  1.0000
  O   O2        1.0  0.8859608744461092  0.1978413281550715  0.7204579614273249  1.0000
  O   O3        1.0  0.01840597125338883  0.8207957866524972  0.9845610737233645  1.0000
  O   O4        1.0  0.15537359635194342  0.35972676322179026  0.2663605482751222  1.0000
  O   O5        1.0  0.4374184525310121  0.93362104347973  0.9121154646026567  1.0000
  O   O6        1.0  0.04225996377163906  0.23394815318822684  0.9679012744271716  1.0000
  O   O7        1.0  0.38190715285957444  0.5474267321928697  0.8538518469974652  1.0000
  O   O8        1.0  0.18328658607974518  0.795633931416089  0.30421096433377603  1.0000
  O   O9        1.0  0.3540943542282012  0.3370035647184104  0.5848436969774301  1.0000
  O   O10       1.0  0.9385016300597159  0.6332085984226471  0.7133076246655762  1.0000
  O   O11       1.0  0.657212476520677  0.6316375760665641  0.459704954082945  1.0000
  O   O12       1.0  0.1658511315140409  0.9345509326611077  0.57861090759149  1.0000
  O   O13       1.0  0.5004469087439725  0.06361647341227426  0.14956987098598837  1.0000
  O   O14       1.0  0.6379689693733813  0.500211501058209  0.1207744942720637  1.0000
data_image189
_chemical_formula_structural       V8O14
_chemical_formula_sum              "V8 O14"
_cell_length_a       5.550582121701734
_cell_length_b       6.786413640792483
_cell_length_c       6.98693040473207
_cell_angle_alpha    64.37373990390658
_cell_angle_beta     70.29505848782973
_cell_angle_gamma    75.17998095895898

_space_group_name_H-M_alt    "P 1"
_space_group_IT_number       1

loop_
  _space_group_symop_operation_xyz
  'x, y, z'

loop_
  _atom_site_type_symbol
  _atom_site_label
  _atom_site_symmetry_multiplicity
  _atom_site_fract_x
  _atom_site_fract_y
  _atom_site_fract_z
  _atom_site_occupancy
  V   V1        1.0  0.17475409812558848  0.11028076832482288  0.23684719785511965  1.0000
  V   V2        1.0  0.7548966212134279  0.37665606836090093  0.42373837919609425  1.0000
  V   V3        1.0  0.28410841998537606  0.6316907510084551  0.6171013610927392  1.0000
  V   V4        1.0  0.28285552101092754  0.6404216503046848  0.09928550884373544  1.0000
  V   V5        1.0  0.711599376479469  0.3563700654550095  0.8818562109845955  1.0000
  V   V6        1.0  0.20231794433360736  0.12019422792588995  0.7726374389597939  1.0000
  V   V7        1.0  0.8009108872099129  0.9218589633298717  0.21248845673816064  1.0000
  V   V8        1.0  0.7836979888855821  0.8874290905695422  0.7485837170234173  1.0000
  O   O1        1.0  0.8069981477637103  0.022503772614494145  0.4326746040228586  1.0000
  O   O2        1.0  0.8375103181626827  0.2036188219323629  0.6900019470540258  1.0000
  O   O3        1.0  0.952592151320305  0.7578195931909794  0.0052388974468497995  1.0000
  O   O4        1.0  0.11641350744187526  0.36950100081970233  0.2826075044485733  1.0000
  O   O5        1.0  0.4763534011953075  0.9234851353649853  0.9081519291655181  1.0000
  O   O6        1.0  0.011556882285270777  0.2352089482623977  0.004614966591548776  1.0000
  O   O7        1.0  0.33923386006467715  0.4577044578420197  0.909290923144478  1.0000
  O   O8        1.0  0.17067093195898117  0.8132288983025794  0.280945994238313  1.0000
  O   O9        1.0  0.40257726003405236  0.3765038577744928  0.5132969429840043  1.0000
  O   O10       1.0  0.9044263921285618  0.631702596193535  0.6706226843504591  1.0000
  O   O11       1.0  0.6784028082529913  0.6550580386768149  0.40559136098671134  1.0000
  O   O12       1.0  0.22056799052820827  0.9424012761586376  0.5561465068890166  1.0000
  O   O13       1.0  0.5478917500292162  0.11562307571170931  0.11552543502719131  1.0000
  O   O14       1.0  0.6293015880164926  0.4280201935054643  0.16774737056023195  1.0000
data_image190
_chemical_formula_structural       V8O14
_chemical_formula_sum              "V8 O14"
_cell_length_a       5.550582121701734
_cell_length_b       6.786413640792483
_cell_length_c       6.98693040473207
_cell_angle_alpha    64.37373990390658
_cell_angle_beta     70.29505848782973
_cell_angle_gamma    75.17998095895898

_space_group_name_H-M_alt    "P 1"
_space_group_IT_number       1

loop_
  _space_group_symop_operation_xyz
  'x, y, z'

loop_
  _atom_site_type_symbol
  _atom_site_label
  _atom_site_symmetry_multiplicity
  _atom_site_fract_x
  _atom_site_fract_y
  _atom_site_fract_z
  _atom_site_occupancy
  V   V1        1.0  0.21252497192842912  0.14639607871745178  0.22033765515779566  1.0000
  V   V2        1.0  0.7121155210166912  0.37977202968044266  0.41396712316746204  1.0000
  V   V3        1.0  0.27080554089137876  0.6075492560715321  0.592101922112124  1.0000
  V   V4        1.0  0.3053186989665836  0.6665693996617832  0.07061735884409413  1.0000
  V   V5        1.0  0.713183073716239  0.3625526999609073  0.9206921099393006  1.0000
  V   V6        1.0  0.17200373853939083  0.10813716266181693  0.7519444392097883  1.0000
  V   V7        1.0  0.810686470997365  0.8926574895418941  0.24220166510123625  1.0000
  V   V8        1.0  0.7965335753593004  0.9005511630218275  0.7518230537503853  1.0000
  O   O1        1.0  0.7611993241805457  0.04603071048943017  0.4650783728741892  1.0000
  O   O2        1.0  0.8614723513900867  0.2226475433500454  0.6866788587773631  1.0000
  O   O3        1.0  0.019181707523209912  0.807382724636494  0.9805588176066301  1.0000
  O   O4        1.0  0.07581449040894996  0.40315953664261606  0.2621467692053377  1.0000
  O   O5        1.0  0.472245106216657  0.9087880257909978  0.8664409268250582  1.0000
  O   O6        1.0  0.025169193465958712  0.18370147611222526  0.9960434024852042  1.0000
  O   O7        1.0  0.36099447003004403  0.47554121953694367  0.8719002789580097  1.0000
  O   O8        1.0  0.16973218541775534  0.7619152095767517  0.3123172588584615  1.0000
  O   O9        1.0  0.37275857271122437  0.3259003325267962  0.5337793853839214  1.0000
  O   O10       1.0  0.9099936404052947  0.5883534734038485  0.7924339517405775  1.0000
  O   O11       1.0  0.6457927504935711  0.6298227085488559  0.46443799997065655  1.0000
  O   O12       1.0  0.24873522206554408  0.9297815363288131  0.5812344234342174  1.0000
  O   O13       1.0  0.5801836483175598  0.08832727410655238  0.08445080105483502  1.0000
  O   O14       1.0  0.605184259179745  0.5058817030162003  0.1307440402097703  1.0000
data_image191
_chemical_formula_structural       V8O14
_chemical_formula_sum              "V8 O14"
_cell_length_a       5.550582121701734
_cell_length_b       6.786413640792483
_cell_length_c       6.98693040473207
_cell_angle_alpha    64.37373990390658
_cell_angle_beta     70.29505848782973
_cell_angle_gamma    75.17998095895898

_space_group_name_H-M_alt    "P 1"
_space_group_IT_number       1

loop_
  _space_group_symop_operation_xyz
  'x, y, z'

loop_
  _atom_site_type_symbol
  _atom_site_label
  _atom_site_symmetry_multiplicity
  _atom_site_fract_x
  _atom_site_fract_y
  _atom_site_fract_z
  _atom_site_occupancy
  V   V1        1.0  0.21926072101640548  0.10098099391058996  0.2183362904125399  1.0000
  V   V2        1.0  0.6827461354415195  0.346679344084607  0.40983190898004923  1.0000
  V   V3        1.0  0.3085107681997723  0.6442616269338685  0.5779090681656938  1.0000
  V   V4        1.0  0.29680457310797803  0.5946867756544351  0.08826430738108122  1.0000
  V   V5        1.0  0.749743775731291  0.4035806051056103  0.8579961512350566  1.0000
  V   V6        1.0  0.1802801677150664  0.06723348667674052  0.7963671329600132  1.0000
  V   V7        1.0  0.7931095625586877  0.9338224919517664  0.25327156467370265  1.0000
  V   V8        1.0  0.8225032516351333  0.9241092453278791  0.7516994311528878  1.0000
  O   O1        1.0  0.7126567341171239  0.007816833903306267  0.5017992446227911  1.0000
  O   O2        1.0  0.767164374573586  0.23308181059017427  0.7010630613899291  1.0000
  O   O3        1.0  0.02895971905503858  0.7763210456351057  0.9815263444555308  1.0000
  O   O4        1.0  0.07678828351993185  0.37565334066081313  0.22262048539769844  1.0000
  O   O5        1.0  0.4238781639694302  0.8983463702926969  0.945757698144689  1.0000
  O   O6        1.0  0.008516796901738862  0.1701555604941174  0.02080622839438568  1.0000
  O   O7        1.0  0.4321691248642907  0.5644106051937157  0.8055295503319803  1.0000
  O   O8        1.0  0.14008959992157674  0.7940843463538948  0.36443225394109424  1.0000
  O   O9        1.0  0.3379539692823969  0.32994519701980174  0.6367753408964782  1.0000
  O   O10       1.0  0.953138312113669  0.6042985714067117  0.757315918043656  1.0000
  O   O11       1.0  0.6539905568103214  0.705311928934523  0.3753987629475975  1.0000
  O   O12       1.0  0.21531346291638642  0.950175054455131  0.5705087937855691  1.0000
  O   O13       1.0  0.5325597140308643  0.1631668392125096  0.05812464762520317  1.0000
  O   O14       1.0  0.6431068906672139  0.4516684286130062  0.12282835054636809  1.0000
data_image192
_chemical_formula_structural       V8O14
_chemical_formula_sum              "V8 O14"
_cell_length_a       5.550582121701734
_cell_length_b       6.786413640792483
_cell_length_c       6.98693040473207
_cell_angle_alpha    64.37373990390658
_cell_angle_beta     70.29505848782973
_cell_angle_gamma    75.17998095895898

_space_group_name_H-M_alt    "P 1"
_space_group_IT_number       1

loop_
  _space_group_symop_operation_xyz
  'x, y, z'

loop_
  _atom_site_type_symbol
  _atom_site_label
  _atom_site_symmetry_multiplicity
  _atom_site_fract_x
  _atom_site_fract_y
  _atom_site_fract_z
  _atom_site_occupancy
  V   V1        1.0  0.20492322401192212  0.10463314460641505  0.22676780989771608  1.0000
  V   V2        1.0  0.7206498157267996  0.3752815736535366  0.3937120189701202  1.0000
  V   V3        1.0  0.25649392195818843  0.6099028446790681  0.6365253311632372  1.0000
  V   V4        1.0  0.2558461036359304  0.6218541247462114  0.11218602872762114  1.0000
  V   V5        1.0  0.7197614513094082  0.372491725099544  0.9104385251930398  1.0000
  V   V6        1.0  0.2559869506145643  0.12524633449156924  0.6849818780870472  1.0000
  V   V7        1.0  0.8514191806200397  0.8764887784312836  0.28080583264351583  1.0000
  V   V8        1.0  0.753877986866339  0.9375445195964676  0.7515160771230127  1.0000
  O   O1        1.0  0.7477931709248626  0.03583494896248363  0.4179682447401768  1.0000
  O   O2        1.0  0.8531611869624962  0.20720414427862885  0.7080726060402521  1.0000
  O   O3        1.0  0.9274161527638896  0.8275603094501253  0.01574309540417662  1.0000
  O   O4        1.0  0.08557677830170002  0.3912689515298486  0.23222139784069812  1.0000
  O   O5        1.0  0.42588906768250845  0.8973615607548039  0.8613703790287088  1.0000
  O   O6        1.0  0.03430700314368826  0.1913989694313969  0.9667558451354498  1.0000
  O   O7        1.0  0.38641093602979415  0.5137445031386788  0.8721667337540888  1.0000
  O   O8        1.0  0.2141792740873171  0.7667936031796218  0.3306226375402767  1.0000
  O   O9        1.0  0.37868651001096426  0.38992171412938686  0.5018251524527284  1.0000
  O   O10       1.0  0.9044144250511605  0.6466009547288812  0.7106899434808105  1.0000
  O   O11       1.0  0.6517778717064056  0.603796549628084  0.5001783426643968  1.0000
  O   O12       1.0  0.18171742342317299  0.9715889929689913  0.5494395434847287  1.0000
  O   O13       1.0  0.5697809742670893  0.05799457762412639  0.12651942814463885  1.0000
  O   O14       1.0  0.6627461840711153  0.4972337529547553  0.13704140046660118  1.0000
data_image193
_chemical_formula_structural       V8O14
_chemical_formula_sum              "V8 O14"
_cell_length_a       5.550582121701734
_cell_length_b       6.786413640792483
_cell_length_c       6.98693040473207
_cell_angle_alpha    64.37373990390658
_cell_angle_beta     70.29505848782973
_cell_angle_gamma    75.17998095895898

_space_group_name_H-M_alt    "P 1"
_space_group_IT_number       1

loop_
  _space_group_symop_operation_xyz
  'x, y, z'

loop_
  _atom_site_type_symbol
  _atom_site_label
  _atom_site_symmetry_multiplicity
  _atom_site_fract_x
  _atom_site_fract_y
  _atom_site_fract_z
  _atom_site_occupancy
  V   V1        1.0  0.21313968342059156  0.07217427045222667  0.22569584452763491  1.0000
  V   V2        1.0  0.7729042376927282  0.35936440750962484  0.4093099022797736  1.0000
  V   V3        1.0  0.23494686612087515  0.5923029065824125  0.6337097071820961  1.0000
  V   V4        1.0  0.32137041103171193  0.652426462773188  0.06703260017886072  1.0000
  V   V5        1.0  0.735834773872507  0.3792327636417479  0.9281739224283898  1.0000
  V   V6        1.0  0.20521583485955036  0.06984370124596141  0.7664927903159906  1.0000
  V   V7        1.0  0.7696434809556697  0.894663769562373  0.2721684183244172  1.0000
  V   V8        1.0  0.8052263338115698  0.9245238377861407  0.7224639323182197  1.0000
  O   O1        1.0  0.7729645813124717  0.08760657554588534  0.40645290926971717  1.0000
  O   O2        1.0  0.8028237563127634  0.29893924558387364  0.6577294138323849  1.0000
  O   O3        1.0  0.9694012062841744  0.8318646907263979  0.9766632062750089  1.0000
  O   O4        1.0  0.07145434651376187  0.3954559198297628  0.2653540897730412  1.0000
  O   O5        1.0  0.4657992152435446  0.9362632661146167  0.8737100226757243  1.0000
  O   O6        1.0  0.04343716533328291  0.2240161934469162  0.991122324507576  1.0000
  O   O7        1.0  0.3999463916376084  0.5254987296427055  0.8552604532778583  1.0000
  O   O8        1.0  0.14339764502845842  0.7313868710980975  0.3319920283508815  1.0000
  O   O9        1.0  0.3261774196847106  0.34340512379688626  0.5911201582193122  1.0000
  O   O10       1.0  0.8863090628907709  0.6492774255560276  0.7010925385057235  1.0000
  O   O11       1.0  0.5903639854880418  0.6578118137772718  0.38693871810299746  1.0000
  O   O12       1.0  0.22991962614988573  0.9591034461296628  0.555718310573914  1.0000
  O   O13       1.0  0.5729168981050199  0.13928004259067345  0.07535022788886508  1.0000
  O   O14       1.0  0.6229080300834361  0.46673994938357205  0.1766184746999113  1.0000
data_image194
_chemical_formula_structural       V8O14
_chemical_formula_sum              "V8 O14"
_cell_length_a       5.550582121701734
_cell_length_b       6.786413640792483
_cell_length_c       6.98693040473207
_cell_angle_alpha    64.37373990390658
_cell_angle_beta     70.29505848782973
_cell_angle_gamma    75.17998095895898

_space_group_name_H-M_alt    "P 1"
_space_group_IT_number       1

loop_
  _space_group_symop_operation_xyz
  'x, y, z'

loop_
  _atom_site_type_symbol
  _atom_site_label
  _atom_site_symmetry_multiplicity
  _atom_site_fract_x
  _atom_site_fract_y
  _atom_site_fract_z
  _atom_site_occupancy
  V   V1        1.0  0.1683227184929409  0.058986781884737445  0.2851611143012549  1.0000
  V   V2        1.0  0.7362106049618956  0.3822352125099595  0.38358325268847077  1.0000
  V   V3        1.0  0.28812645547786536  0.6204351182407777  0.6061922903119217  1.0000
  V   V4        1.0  0.2845341217380684  0.6494604196268203  0.07537631386654253  1.0000
  V   V5        1.0  0.7269332987324958  0.36698512962402313  0.8478876526911825  1.0000
  V   V6        1.0  0.22418176698517917  0.08057166108316145  0.7289647137629987  1.0000
  V   V7        1.0  0.8337351402701005  0.9551082505559529  0.19768805278147794  1.0000
  V   V8        1.0  0.7847432553274026  0.8497941694466264  0.8214706417194768  1.0000
  O   O1        1.0  0.8060397393900225  0.05708064543480777  0.4450108508158586  1.0000
  O   O2        1.0  0.8178525509500414  0.23825335858670998  0.660269686195524  1.0000
  O   O3        1.0  0.9837912391342779  0.8135794169952613  0.015723050949975503  1.0000
  O   O4        1.0  0.06083015455370033  0.4331632394757512  0.25842256354184956  1.0000
  O   O5        1.0  0.4668886321614131  0.960446488029281  0.862137427422087  1.0000
  O   O6        1.0  0.010089650016769276  0.17189721934033797  0.05545811132132533  1.0000
  O   O7        1.0  0.3510536631928814  0.4608846189579153  0.8681501139085664  1.0000
  O   O8        1.0  0.16447331162654275  0.74567183588852  0.3271924458886882  1.0000
  O   O9        1.0  0.36293277382204453  0.3570162621566594  0.5569863490998505  1.0000
  O   O10       1.0  0.9273473118469544  0.5708994855914105  0.7912977504163011  1.0000
  O   O11       1.0  0.6387624948988144  0.6873780032818447  0.454593247570461  1.0000
  O   O12       1.0  0.25774957430202794  0.8947231740971118  0.5757602715823411  1.0000
  O   O13       1.0  0.5118206008559912  0.170038630041125  0.130299202278265  1.0000
  O   O14       1.0  0.5773541135616002  0.6181963439934441  0.09811845912169102  1.0000
data_image195
_chemical_formula_structural       V8O14
_chemical_formula_sum              "V8 O14"
_cell_length_a       5.550582121701734
_cell_length_b       6.786413640792483
_cell_length_c       6.98693040473207
_cell_angle_alpha    64.37373990390658
_cell_angle_beta     70.29505848782973
_cell_angle_gamma    75.17998095895898

_space_group_name_H-M_alt    "P 1"
_space_group_IT_number       1

loop_
  _space_group_symop_operation_xyz
  'x, y, z'

loop_
  _atom_site_type_symbol
  _atom_site_label
  _atom_site_symmetry_multiplicity
  _atom_site_fract_x
  _atom_site_fract_y
  _atom_site_fract_z
  _atom_site_occupancy
  V   V1        1.0  0.1907373604709775  0.12122717016821573  0.21132182688960094  1.0000
  V   V2        1.0  0.8023934683298338  0.3938639902533195  0.381786859953291  1.0000
  V   V3        1.0  0.2847065098862255  0.5921228962771283  0.6254286868347196  1.0000
  V   V4        1.0  0.31290534568182865  0.6352867602405803  0.10465927071974791  1.0000
  V   V5        1.0  0.7342597427971471  0.3824291501971844  0.9004333501152876  1.0000
  V   V6        1.0  0.16663798677750835  0.06586646546661258  0.7659371494187641  1.0000
  V   V7        1.0  0.813604290772138  0.8385485757036452  0.32178948943075536  1.0000
  V   V8        1.0  0.8237014001682696  0.9450611604902412  0.7013954900784007  1.0000
  O   O1        1.0  0.782585836679449  0.09909507471561044  0.38798544277045827  1.0000
  O   O2        1.0  0.798025599467946  0.21423664540714024  0.7190501393912643  1.0000
  O   O3        1.0  0.9387169318838077  0.7875486225976249  0.038963475977223716  1.0000
  O   O4        1.0  0.12472198746742971  0.37000963842530865  0.28618709800903275  1.0000
  O   O5        1.0  0.45178891684615025  0.8906237435328903  0.7862711949186092  1.0000
  O   O6        1.0  0.045308961916696325  0.16750728228845502  0.0127022015596436  1.0000
  O   O7        1.0  0.33569141714645  0.5154773160347803  0.895234005784351  1.0000
  O   O8        1.0  0.1508032976517622  0.8220144020584335  0.29235915627250997  1.0000
  O   O9        1.0  0.28592117538465617  0.37182941290628696  0.5767745969963212  1.0000
  O   O10       1.0  0.8652097880758948  0.6422504047984815  0.6760926634131925  1.0000
  O   O11       1.0  0.5366670563961075  0.6927358124182555  0.3442067078981387  1.0000
  O   O12       1.0  0.20983084444534153  0.9782228642603149  0.5326415542221508  1.0000
  O   O13       1.0  0.5574499414195806  0.1204379796481168  0.15079854208498059  1.0000
  O   O14       1.0  0.606201601619256  0.4653992458094579  0.19280848171688295  1.0000
data_image196
_chemical_formula_structural       V8O14
_chemical_formula_sum              "V8 O14"
_cell_length_a       5.550582121701734
_cell_length_b       6.786413640792483
_cell_length_c       6.98693040473207
_cell_angle_alpha    64.37373990390658
_cell_angle_beta     70.29505848782973
_cell_angle_gamma    75.17998095895898

_space_group_name_H-M_alt    "P 1"
_space_group_IT_number       1

loop_
  _space_group_symop_operation_xyz
  'x, y, z'

loop_
  _atom_site_type_symbol
  _atom_site_label
  _atom_site_symmetry_multiplicity
  _atom_site_fract_x
  _atom_site_fract_y
  _atom_site_fract_z
  _atom_site_occupancy
  V   V1        1.0  0.19722445071634878  0.1166144198114206  0.26228709488116436  1.0000
  V   V2        1.0  0.7276507898631475  0.3949728015090005  0.3894584506185608  1.0000
  V   V3        1.0  0.2723603742459294  0.6454276658831816  0.5783260982156875  1.0000
  V   V4        1.0  0.2844962865060753  0.6293043021718714  0.0777259876505733  1.0000
  V   V5        1.0  0.6733275646127079  0.3609684402680687  0.8678045228176426  1.0000
  V   V6        1.0  0.2046672848682292  0.055403016728579134  0.7505362965242601  1.0000
  V   V7        1.0  0.8751948364225787  0.8893284259970553  0.2631718763067815  1.0000
  V   V8        1.0  0.7948518822824424  0.8944505928828529  0.7816025605180829  1.0000
  O   O1        1.0  0.7957315407612914  0.05916106438914025  0.4808440942653049  1.0000
  O   O2        1.0  0.8141352162720857  0.2103872547503138  0.7111263120372595  1.0000
  O   O3        1.0  0.9486799418830983  0.8518338636849929  0.9831202354194075  1.0000
  O   O4        1.0  0.08954470607758133  0.4294095066831935  0.23782114763308532  1.0000
  O   O5        1.0  0.4635568753279702  0.9278930582106553  0.9048394083419956  1.0000
  O   O6        1.0  0.06526152551121633  0.1813090887977352  0.017557889765095154  1.0000
  O   O7        1.0  0.3335925980247567  0.5211749238828023  0.8919584300057014  1.0000
  O   O8        1.0  0.22002314236838774  0.8035340077506254  0.26763098927190376  1.0000
  O   O9        1.0  0.34354097553191154  0.3968496062786994  0.5059790563130715  1.0000
  O   O10       1.0  0.8648931416231411  0.6309186671835666  0.7462047530524651  1.0000
  O   O11       1.0  0.7130226356015095  0.6486240484249363  0.3962605936355499  1.0000
  O   O12       1.0  0.2406430208025878  0.9350204793523077  0.5551128962046687  1.0000
  O   O13       1.0  0.5504237692465488  0.07321143962847555  0.16784048797441373  1.0000
  O   O14       1.0  0.5638690875751277  0.4373679101933907  0.15374775586236408  1.0000
data_image197
_chemical_formula_structural       V8O14
_chemical_formula_sum              "V8 O14"
_cell_length_a       5.550582121701734
_cell_length_b       6.786413640792483
_cell_length_c       6.98693040473207
_cell_angle_alpha    64.37373990390658
_cell_angle_beta     70.29505848782973
_cell_angle_gamma    75.17998095895898

_space_group_name_H-M_alt    "P 1"
_space_group_IT_number       1

loop_
  _space_group_symop_operation_xyz
  'x, y, z'

loop_
  _atom_site_type_symbol
  _atom_site_label
  _atom_site_symmetry_multiplicity
  _atom_site_fract_x
  _atom_site_fract_y
  _atom_site_fract_z
  _atom_site_occupancy
  V   V1        1.0  0.17954189891319253  0.10059966960450746  0.25959780402595056  1.0000
  V   V2        1.0  0.7382600469966966  0.3450400709624586  0.44149869629673166  1.0000
  V   V3        1.0  0.28350064222259924  0.6623464731610681  0.6155091681492459  1.0000
  V   V4        1.0  0.2964019426931002  0.6412475908810136  0.061602338108411626  1.0000
  V   V5        1.0  0.7372113337977468  0.3924256033725155  0.9306060270694336  1.0000
  V   V6        1.0  0.19497211906925624  0.08219533345241274  0.7643699610089097  1.0000
  V   V7        1.0  0.7873310471709141  0.9153290889484734  0.22173926829076626  1.0000
  V   V8        1.0  0.8242475615948728  0.9002329645703044  0.7067280094271606  1.0000
  O   O1        1.0  0.7459706391746539  0.053775831852959845  0.41096291475412894  1.0000
  O   O2        1.0  0.7895344894138719  0.19891867720580003  0.7101297450731123  1.0000
  O   O3        1.0  0.982535882703388  0.75898705947409  0.0076858690776404615  1.0000
  O   O4        1.0  0.06470673801699461  0.3816097922707585  0.30051276696221657  1.0000
  O   O5        1.0  0.4400999538011351  0.9104970424994185  0.8823931778494017  1.0000
  O   O6        1.0  0.08340238614332744  0.20311028501362036  0.9874165521572574  1.0000
  O   O7        1.0  0.39122789739535785  0.5206364953462415  0.8363703453306565  1.0000
  O   O8        1.0  0.14481728423745696  0.767577962917877  0.2642371123484361  1.0000
  O   O9        1.0  0.3943532046505284  0.3078860332572569  0.5901283442207083  1.0000
  O   O10       1.0  0.8890134974890712  0.6377633841001086  0.7113495526751603  1.0000
  O   O11       1.0  0.6342857890980333  0.6403349554072724  0.41020847004407796  1.0000
  O   O12       1.0  0.23281698119049632  0.9533999236550138  0.5645337170567591  1.0000
  O   O13       1.0  0.5495381963854148  0.11614372664994814  0.0881445493298965  1.0000
  O   O14       1.0  0.6274051586739218  0.4852528481297376  0.1514599661051168  1.0000
data_image198
_chemical_formula_structural       V8O14
_chemical_formula_sum              "V8 O14"
_cell_length_a       5.550582121701734
_cell_length_b       6.786413640792483
_cell_length_c       6.98693040473207
_cell_angle_alpha    64.37373990390658
_cell_angle_beta     70.29505848782973
_cell_angle_gamma    75.17998095895898

_space_group_name_H-M_alt    "P 1"
_space_group_IT_number       1

loop_
  _space_group_symop_operation_xyz
  'x, y, z'

loop_
  _atom_site_type_symbol
  _atom_site_label
  _atom_site_symmetry_multiplicity
  _atom_site_fract_x
  _atom_site_fract_y
  _atom_site_fract_z
  _atom_site_occupancy
  V   V1        1.0  0.18376639230840103  0.13130969705027484  0.21587518143613127  1.0000
  V   V2        1.0  0.727515027802087  0.38634747520794877  0.39898741136831584  1.0000
  V   V3        1.0  0.21683176939673005  0.6325734451945774  0.621251896659374  1.0000
  V   V4        1.0  0.30930394656865595  0.6187885337718073  0.0651889259902891  1.0000
  V   V5        1.0  0.7032267842037982  0.3628265690572418  0.8743174194835505  1.0000
  V   V6        1.0  0.1929706834418261  0.09174564909480458  0.7507608531006089  1.0000
  V   V7        1.0  0.8223619155868583  0.9170748595671775  0.24648770057014663  1.0000
  V   V8        1.0  0.8279575227501681  0.9107509656314867  0.7809055824075583  1.0000
  O   O1        1.0  0.8450487950865624  0.0631286687668267  0.40277445664544825  1.0000
  O   O2        1.0  0.8509041781365453  0.2515412545611029  0.6544797262002701  1.0000
  O   O3        1.0  0.000902917139921966  0.7855276898520741  0.0058945837420283365  1.0000
  O   O4        1.0  0.11543441562361793  0.39061494656459256  0.28619850703439054  1.0000
  O   O5        1.0  0.49566066898746736  0.8828517523149245  0.8586036303301804  1.0000
  O   O6        1.0  0.07136140885311583  0.20686857108910892  0.9597509502568127  1.0000
  O   O7        1.0  0.3521559738403024  0.45988952355929114  0.8744526458934495  1.0000
  O   O8        1.0  0.14531176432429865  0.770289506767508  0.33111881296161577  1.0000
  O   O9        1.0  0.38216861668357893  0.315579755792068  0.560772709767331  1.0000
  O   O10       1.0  0.8878742603356459  0.604326245857548  0.8013276463988277  1.0000
  O   O11       1.0  0.6562040660432608  0.6857615295151721  0.4829074718702821  1.0000
  O   O12       1.0  0.18908055498796267  0.9425060029307288  0.5962683229775508  1.0000
  O   O13       1.0  0.5876524658751987  0.07477115799859008  0.10599331603466854  1.0000
  O   O14       1.0  0.5781790998308718  0.46698096884403223  0.1456590886049592  1.0000
data_image199
_chemical_formula_structural       V8O14
_chemical_formula_sum              "V8 O14"
_cell_length_a       5.550582121701734
_cell_length_b       6.786413640792483
_cell_length_c       6.98693040473207
_cell_angle_alpha    64.37373990390658
_cell_angle_beta     70.29505848782973
_cell_angle_gamma    75.17998095895898

_space_group_name_H-M_alt    "P 1"
_space_group_IT_number       1

loop_
  _space_group_symop_operation_xyz
  'x, y, z'

loop_
  _atom_site_type_symbol
  _atom_site_label
  _atom_site_symmetry_multiplicity
  _atom_site_fract_x
  _atom_site_fract_y
  _atom_site_fract_z
  _atom_site_occupancy
  V   V1        1.0  0.20346529030400295  0.10930856301570377  0.26458772049415635  1.0000
  V   V2        1.0  0.6982774221123434  0.37466555471577245  0.40528463666562736  1.0000
  V   V3        1.0  0.2686226021252276  0.5925493386235469  0.604304081358925  1.0000
  V   V4        1.0  0.2786306147497277  0.6580706036252179  0.1028182732934663  1.0000
  V   V5        1.0  0.7156309236233132  0.3745416772329815  0.9167224726257873  1.0000
  V   V6        1.0  0.1739156014707555  0.09218162235671798  0.7519949746036191  1.0000
  V   V7        1.0  0.8481472805212702  0.8984044982509265  0.2448535834885968  1.0000
  V   V8        1.0  0.786145595180569  0.8780125883757414  0.7310279461388043  1.0000
  O   O1        1.0  0.770718292111234  0.10194552902105142  0.4126661925662183  1.0000
  O   O2        1.0  0.8580368789029166  0.21778591585498258  0.7192515706044348  1.0000
  O   O3        1.0  0.9821479241632134  0.8297056645499373  0.9734667484807014  1.0000
  O   O4        1.0  0.14972658387537402  0.36442925801518206  0.30635258161294876  1.0000
  O   O5        1.0  0.42950487460006026  0.9164980273704821  0.852365707697498  1.0000
  O   O6        1.0  0.0872564331865108  0.2230374128594216  0.9816934738312201  1.0000
  O   O7        1.0  0.38474533593355165  0.548811579629069  0.8381357964554585  1.0000
  O   O8        1.0  0.21072230482535714  0.785498789947541  0.3056240708815811  1.0000
  O   O9        1.0  0.37830192891438724  0.31355806157027405  0.5510094644301035  1.0000
  O   O10       1.0  0.8957620451503222  0.6150400056324192  0.7167167256355024  1.0000
  O   O11       1.0  0.6332576373204676  0.6582610994579859  0.40444668979862575  1.0000
  O   O12       1.0  0.1709950513963459  0.9237269304663451  0.5710350983382141  1.0000
  O   O13       1.0  0.5703388519957227  0.09042010474509954  0.1316542797508744  1.0000
  O   O14       1.0  0.6657061756726702  0.5391204758210989  0.09192242649445338  1.0000
data_image200
_chemical_formula_structural       V8O14
_chemical_formula_sum              "V8 O14"
_cell_length_a       5.550582121701734
_cell_length_b       6.786413640792483
_cell_length_c       6.98693040473207
_cell_angle_alpha    64.37373990390658
_cell_angle_beta     70.29505848782973
_cell_angle_gamma    75.17998095895898

_space_group_name_H-M_alt    "P 1"
_space_group_IT_number       1

loop_
  _space_group_symop_operation_xyz
  'x, y, z'

loop_
  _atom_site_type_symbol
  _atom_site_label
  _atom_site_symmetry_multiplicity
  _atom_site_fract_x
  _atom_site_fract_y
  _atom_site_fract_z
  _atom_site_occupancy
  V   V1        1.0  0.17960601193179193  0.09135322679540887  0.2549894675374574  1.0000
  V   V2        1.0  0.6600105521014573  0.34101548852414226  0.4256966527434575  1.0000
  V   V3        1.0  0.2942991607254273  0.6440757369073724  0.6028040617124959  1.0000
  V   V4        1.0  0.28875073382997885  0.6367588424916159  0.07711475591689954  1.0000
  V   V5        1.0  0.7699315643760255  0.37816888864593373  0.902036747398489  1.0000
  V   V6        1.0  0.1800742828845102  0.09337629527422674  0.7343349531719471  1.0000
  V   V7        1.0  0.8096249531548624  0.8966676568498918  0.2664191413322313  1.0000
  V   V8        1.0  0.804348746685347  0.9022093608220728  0.7879032887682761  1.0000
  O   O1        1.0  0.787376494414231  0.027146477314140036  0.4513932567480001  1.0000
  O   O2        1.0  0.845083711370927  0.26783145533153646  0.6419430092870995  1.0000
  O   O3        1.0  0.9407942483264835  0.8385585862533935  0.012795131666449855  1.0000
  O   O4        1.0  0.11235067900802997  0.3658073606521498  0.2419066093876873  1.0000
  O   O5        1.0  0.46730404714984936  0.909446920284743  0.8582139369036175  1.0000
  O   O6        1.0  0.03969419810160388  0.23191995024757012  0.9891329836567442  1.0000
  O   O7        1.0  0.4492848923745055  0.4683518397291876  0.8326330572006452  1.0000
  O   O8        1.0  0.18883481641677674  0.8087888589998445  0.277947350781496  1.0000
  O   O9        1.0  0.2939237029755262  0.394268117019184  0.5473789986595143  1.0000
  O   O10       1.0  0.9149562693922557  0.6498026688327959  0.7294558261940426  1.0000
  O   O11       1.0  0.6519941609575229  0.6622500950399971  0.36733753475912617  1.0000
  O   O12       1.0  0.2548497755027381  0.9543151780030836  0.5517981085497825  1.0000
  O   O13       1.0  0.5712854274623248  0.09063340379415388  0.11100155028670475  1.0000
  O   O14       1.0  0.6202745349331132  0.4413117318446761  0.14812572233804125  1.0000
