data_image0
_chemical_formula_structural       Na4C8N4O12
_chemical_formula_sum              "Na4 C8 N4 O12"
_cell_length_a       5.423166
_cell_length_b       3.6248270000000002
_cell_length_c       20.275782753631116
_cell_angle_alpha    88.79220736031418
_cell_angle_beta     90.0
_cell_angle_gamma    90.0

_space_group_name_H-M_alt    "P 1"
_space_group_IT_number       1

loop_
  _space_group_symop_operation_xyz
  'x, y, z'

loop_
  _atom_site_type_symbol
  _atom_site_label
  _atom_site_symmetry_multiplicity
  _atom_site_fract_x
  _atom_site_fract_y
  _atom_site_fract_z
  _atom_site_occupancy
  Na  Na1       1.0  0.663636  0.524041  0.8103  1.0000
  Na  Na2       1.0  0.163636  0.975959  0.6897  1.0000
  Na  Na3       1.0  0.336364  0.4759589999999999  0.1897  1.0000
  Na  Na4       1.0  0.836364  0.024041  0.3103  1.0000
  C   C1        1.0  0.584658  0.2469979999999999  0.5898050000000001  1.0000
  C   C2        1.0  0.084658  0.253002  0.910195  1.0000
  C   C3        1.0  0.415342  0.753002  0.410195  1.0000
  C   C4        1.0  0.9153419999999999  0.7469979999999999  0.08980500000000001  1.0000
  C   C5        1.0  0.655394  0.42346799999999996  0.6579840000000002  1.0000
  C   C6        1.0  0.155394  0.076532  0.8420160000000001  1.0000
  C   C7        1.0  0.344606  0.5765319999999999  0.342016  1.0000
  C   C8        1.0  0.844606  0.923468  0.157984  1.0000
  N   N1        1.0  0.7581180000000001  0.24981900000000004  0.5429760000000001  1.0000
  N   N2        1.0  0.258118  0.25018099999999993  0.9570240000000001  1.0000
  N   N3        1.0  0.241882  0.750181  0.45702400000000004  1.0000
  N   N4        1.0  0.7418819999999999  0.7498189999999999  0.042976  1.0000
  O   O1        1.0  0.37484700000000004  0.10617799999999998  0.5828270000000001  1.0000
  O   O2        1.0  0.874847  0.393822  0.9171730000000001  1.0000
  O   O3        1.0  0.625153  0.8938219999999998  0.4171730000000001  1.0000
  O   O4        1.0  0.125153  0.6061779999999999  0.082827  1.0000
  O   O5        1.0  0.879282  0.5022459999999999  0.6660200000000002  1.0000
  O   O6        1.0  0.379282  0.9977539999999999  0.8339800000000003  1.0000
  O   O7        1.0  0.120718  0.4977539999999999  0.33398000000000005  1.0000
  O   O8        1.0  0.620718  0.0022460000000000015  0.16602000000000003  1.0000
  O   O9        1.0  0.480676  0.4591669999999999  0.698527  1.0000
  O   O10       1.0  0.980676  0.04083299999999999  0.801473  1.0000
  O   O11       1.0  0.519324  0.5408329999999999  0.301473  1.0000
  O   O12       1.0  0.019324  0.959167  0.19852700000000004  1.0000
data_image1
_chemical_formula_structural       Na4C8N4O12
_chemical_formula_sum              "Na4 C8 N4 O12"
_cell_length_a       5.423166
_cell_length_b       3.6248270000000002
_cell_length_c       20.275782753631116
_cell_angle_alpha    88.79220736031418
_cell_angle_beta     90.0
_cell_angle_gamma    90.0

_space_group_name_H-M_alt    "P 1"
_space_group_IT_number       1

loop_
  _space_group_symop_operation_xyz
  'x, y, z'

loop_
  _atom_site_type_symbol
  _atom_site_label
  _atom_site_symmetry_multiplicity
  _atom_site_fract_x
  _atom_site_fract_y
  _atom_site_fract_z
  _atom_site_occupancy
  Na  Na1       1.0  0.6231013280657823  0.495645459255985  0.8375903205354585  1.0000
  Na  Na2       1.0  0.027795622243248396  0.09870853127883916  0.6419759828523011  1.0000
  Na  Na3       1.0  0.2983009842748662  0.5606109820297113  0.17534647817430246  1.0000
  Na  Na4       1.0  0.7222540447417868  0.17618971320795135  0.32203313663793165  1.0000
  C   C1        1.0  0.6663766224072097  0.12756374255957711  0.5541147967485863  1.0000
  C   C2        1.0  0.021476773410759317  0.2618683788498816  0.9401374735393363  1.0000
  C   C3        1.0  0.6068190999255214  0.7042425730768345  0.41239551651835044  1.0000
  C   C4        1.0  0.9928382880627915  0.5614319587156019  0.0673467938100819  1.0000
  C   C5        1.0  0.5930626928496655  0.5473696582350429  0.6952740107818554  1.0000
  C   C6        1.0  0.20715316402435166  0.9894089242877941  0.8326041905195111  1.0000
  C   C7        1.0  0.29433569889142014  0.5350812448450486  0.3430718532003969  1.0000
  C   C8        1.0  0.8020977154587854  0.10426168038046324  0.19490403217404462  1.0000
  N   N1        1.0  0.8205326810208515  0.3732326276005006  0.5458744755646208  1.0000
  N   N2        1.0  0.20622048904373427  0.05285397286590072  0.937450921732098  1.0000
  N   N3        1.0  0.37673621383891065  0.5639055924995982  0.4131077150907962  1.0000
  N   N4        1.0  0.7779946671983038  0.600443105824094  0.07244463475392018  1.0000
  O   O1        1.0  0.5088622213858158  0.9007785641458513  0.5536164833341892  1.0000
  O   O2        1.0  0.849858754436701  0.47552362513617014  0.9422818265793921  1.0000
  O   O3        1.0  0.7800634452563638  0.8293119759595827  0.44388355319430667  1.0000
  O   O4        1.0  0.23908926735939282  0.56969174174623  0.06587641721965282  1.0000
  O   O5        1.0  0.8123758463760496  0.6082909614934688  0.6968157621126999  1.0000
  O   O6        1.0  0.40479754527624434  0.04625805827136209  0.8105286299090217  1.0000
  O   O7        1.0  0.11302657167483743  0.36067175587792016  0.3244625414169087  1.0000
  O   O8        1.0  0.5907865206736136  0.09736896036851651  0.20363987516647442  1.0000
  O   O9        1.0  0.3834799149403234  0.5136946245764095  0.6968023847288107  1.0000
  O   O10       1.0  0.9976916835844284  0.8937815610592135  0.8081420879199733  1.0000
  O   O11       1.0  0.4933168707901015  0.6356243788219604  0.3063293372383576  1.0000
  O   O12       1.0  0.0025848965011604635  0.08020064302625851  0.17820605700674289  1.0000
data_image2
_chemical_formula_structural       Na4C8N4O12
_chemical_formula_sum              "Na4 C8 N4 O12"
_cell_length_a       5.423166
_cell_length_b       3.6248270000000002
_cell_length_c       20.275782753631116
_cell_angle_alpha    88.79220736031418
_cell_angle_beta     90.0
_cell_angle_gamma    90.0

_space_group_name_H-M_alt    "P 1"
_space_group_IT_number       1

loop_
  _space_group_symop_operation_xyz
  'x, y, z'

loop_
  _atom_site_type_symbol
  _atom_site_label
  _atom_site_symmetry_multiplicity
  _atom_site_fract_x
  _atom_site_fract_y
  _atom_site_fract_z
  _atom_site_occupancy
  Na  Na1       1.0  0.5967054887881619  0.6495539878707007  0.8920954074167139  1.0000
  Na  Na2       1.0  0.1920210194949313  0.21765272360467236  0.6641630653099898  1.0000
  Na  Na3       1.0  0.4018793759107835  0.576144694895492  0.1728448836794214  1.0000
  Na  Na4       1.0  0.7809122826612669  0.01850526731472845  0.32289483404771646  1.0000
  C   C1        1.0  0.40395233835530325  0.16988922649546456  0.539687307611905  1.0000
  C   C2        1.0  0.05201627713002521  0.07191370137244502  0.9215972207320546  1.0000
  C   C3        1.0  0.6048247139469227  0.5590991971017939  0.44413583907683496  1.0000
  C   C4        1.0  0.9521525009119077  0.5928473704292456  0.07871393779417234  1.0000
  C   C5        1.0  0.6617880172835632  0.7002717023982798  0.6851372704020221  1.0000
  C   C6        1.0  0.22160139241850443  0.010694800258196059  0.8192149497670432  1.0000
  C   C7        1.0  0.31691149636257515  0.5537294821056953  0.34301960738786896  1.0000
  C   C8        1.0  0.8298653450940361  0.10164224710308423  0.18873629352774782  1.0000
  N   N1        1.0  0.5797874436449532  0.28635464733881977  0.5130865225846952  1.0000
  N   N2        1.0  0.2246990423117787  0.17573985985357898  0.881812339315822  1.0000
  N   N3        1.0  0.46643682159001587  0.523673576700212  0.3865471751634131  1.0000
  N   N4        1.0  0.7826818696360454  0.6958096223431784  0.1131053149422899  1.0000
  O   O1        1.0  0.24429072647870798  0.9865036109744942  0.566699961992394  1.0000
  O   O2        1.0  0.8700993720622042  0.07871129708157419  0.957482575615016  1.0000
  O   O3        1.0  0.8078702615907082  0.7120723375448389  0.4357710557216495  1.0000
  O   O4        1.0  0.1262827537652211  0.45126424819799976  0.049388869682258245  1.0000
  O   O5        1.0  0.8375212516326683  0.8706701223188344  0.6610094857359352  1.0000
  O   O6        1.0  0.4444509237023018  0.014873014399123585  0.7911367386059089  1.0000
  O   O7        1.0  0.08176983876282465  0.5869342725303898  0.3555087016738583  1.0000
  O   O8        1.0  0.6225013724568754  0.0592501930087797  0.20551642163133318  1.0000
  O   O9        1.0  0.504837778972216  0.47878690694994946  0.7041198699442681  1.0000
  O   O10       1.0  0.021480869764681776  0.9229529590879463  0.7984127881623196  1.0000
  O   O11       1.0  0.3555426602400394  0.5303077217120802  0.2810188691487824  1.0000
  O   O12       1.0  0.048008531000537175  0.10438024246359023  0.19666262505385715  1.0000
data_image3
_chemical_formula_structural       Na4C8N4O12
_chemical_formula_sum              "Na4 C8 N4 O12"
_cell_length_a       5.423166
_cell_length_b       3.6248270000000002
_cell_length_c       20.275782753631116
_cell_angle_alpha    88.79220736031418
_cell_angle_beta     90.0
_cell_angle_gamma    90.0

_space_group_name_H-M_alt    "P 1"
_space_group_IT_number       1

loop_
  _space_group_symop_operation_xyz
  'x, y, z'

loop_
  _atom_site_type_symbol
  _atom_site_label
  _atom_site_symmetry_multiplicity
  _atom_site_fract_x
  _atom_site_fract_y
  _atom_site_fract_z
  _atom_site_occupancy
  Na  Na1       1.0  0.5371107910072236  0.6135009681089045  0.8741613656647245  1.0000
  Na  Na2       1.0  0.24157012661904934  0.1521197298666308  0.6882762239531507  1.0000
  Na  Na3       1.0  0.43451146498382726  0.550545070736081  0.1777984064978567  1.0000
  Na  Na4       1.0  0.6063480045833552  0.06683948497317373  0.3072947586733293  1.0000
  C   C1        1.0  0.24421339988303478  0.29503122275973154  0.533156657441802  1.0000
  C   C2        1.0  0.028826506561129592  0.7629731682725175  0.9202062068692125  1.0000
  C   C3        1.0  0.5546169341727571  0.5482726956115929  0.44952197195392046  1.0000
  C   C4        1.0  0.04704390981676565  0.5994811622676212  0.07787889741335922  1.0000
  C   C5        1.0  0.7382347204880452  0.669447111471414  0.6736508460292877  1.0000
  C   C6        1.0  0.17043449054884272  0.03064616716018174  0.8211823541230183  1.0000
  C   C7        1.0  0.31743848718778345  0.5839416338989728  0.3316891086178762  1.0000
  C   C8        1.0  0.8740626060173856  0.9877832872709055  0.16861672559510588  1.0000
  N   N1        1.0  0.34587799271122527  0.4664592524814481  0.49132771480223525  1.0000
  N   N2        1.0  0.14955475288138292  0.03482290700031723  0.8965683542722495  1.0000
  N   N3        1.0  0.5035584369430242  0.6534415446898314  0.3841675314258443  1.0000
  N   N4        1.0  0.8667935320355852  0.7749869928675714  0.10800030806115604  1.0000
  O   O1        1.0  0.17487364386711512  0.184159497153999  0.5839815658563047  1.0000
  O   O2        1.0  0.9501664058563808  0.6243419191224001  0.9710912833078769  1.0000
  O   O3        1.0  0.7725980196171349  0.5452471724028843  0.47114783003772215  1.0000
  O   O4        1.0  0.27528692273218935  0.5512797964290386  0.07171952562526228  1.0000
  O   O5        1.0  0.8604108041654319  0.7167156266464902  0.6261468938255415  1.0000
  O   O6        1.0  0.38225229998959726  0.232787054248494  0.8119338544018362  1.0000
  O   O7        1.0  0.12002287139436554  0.6936381344506226  0.35555087713201206  1.0000
  O   O8        1.0  0.6669692787974258  0.10469296241500324  0.20165740702733587  1.0000
  O   O9        1.0  0.6321781722668609  0.7980260899635624  0.7167033180897456  1.0000
  O   O10       1.0  0.07566761791374943  0.915358072247876  0.7775614213473259  1.0000
  O   O11       1.0  0.38768951806652174  0.48173210793933524  0.2768035501665996  1.0000
  O   O12       1.0  0.09871332297494986  0.05519901694837581  0.19124953215032672  1.0000
data_image4
_chemical_formula_structural       Na4C8N4O12
_chemical_formula_sum              "Na4 C8 N4 O12"
_cell_length_a       5.423166
_cell_length_b       3.6248270000000002
_cell_length_c       20.275782753631116
_cell_angle_alpha    88.79220736031418
_cell_angle_beta     90.0
_cell_angle_gamma    90.0

_space_group_name_H-M_alt    "P 1"
_space_group_IT_number       1

loop_
  _space_group_symop_operation_xyz
  'x, y, z'

loop_
  _atom_site_type_symbol
  _atom_site_label
  _atom_site_symmetry_multiplicity
  _atom_site_fract_x
  _atom_site_fract_y
  _atom_site_fract_z
  _atom_site_occupancy
  Na  Na1       1.0  0.6024663908058804  0.7492194656720607  0.8937471453076958  1.0000
  Na  Na2       1.0  0.1904447374332929  0.4088619414827763  0.7139561761383256  1.0000
  Na  Na3       1.0  0.41953516792124473  0.4556571551585348  0.16735158422547636  1.0000
  Na  Na4       1.0  0.8485734575527565  0.10048243085352099  0.34370771889657026  1.0000
  C   C1        1.0  0.3380387972610354  0.42662060115049016  0.5325295194260113  1.0000
  C   C2        1.0  0.9386799241512941  0.5961626313601589  0.9423355359151026  1.0000
  C   C3        1.0  0.5359277148280546  0.34756705025766815  0.4290759847398176  1.0000
  C   C4        1.0  0.14102418799789107  0.7058161973184276  0.07169936912368506  1.0000
  C   C5        1.0  0.7352756584937645  0.7645739769784543  0.654564686186666  1.0000
  C   C6        1.0  0.05712027747280125  0.9437143425813206  0.8386490573837379  1.0000
  C   C7        1.0  0.31646295414826214  0.6797268159491611  0.34863906554080004  1.0000
  C   C8        1.0  0.955848098861474  0.9943921092334568  0.14938506713349844  1.0000
  N   N1        1.0  0.32734416199438676  0.5053839709233809  0.47042625411845024  1.0000
  N   N2        1.0  0.08803416115983874  0.7016271535494002  0.8991040147284615  1.0000
  N   N3        1.0  0.5229801698770533  0.4848140494704036  0.36737977301147035  1.0000
  N   N4        1.0  0.9430903794849165  0.7690205136747633  0.09712877033634422  1.0000
  O   O1        1.0  0.26461444949897506  0.2827538688770553  0.5822135845288887  1.0000
  O   O2        1.0  0.7503038717013013  0.5465580055215092  0.9726700578083174  1.0000
  O   O3        1.0  0.7163161893668202  0.20794118494487246  0.4590591814363163  1.0000
  O   O4        1.0  0.2777577540853945  0.6501358088500726  0.025129330334459955  1.0000
  O   O5        1.0  0.9556893596433303  0.8195148684186139  0.6611120607758205  1.0000
  O   O6        1.0  0.19242042353315617  0.1568547891225096  0.8115654504304387  1.0000
  O   O7        1.0  0.11836157597808501  0.6512450848389169  0.3810994814394991  1.0000
  O   O8        1.0  0.764596398616502  0.12410037428074035  0.17823050168573257  1.0000
  O   O9        1.0  0.5824281264963488  0.5375255316075939  0.6440072075209629  1.0000
  O   O10       1.0  0.8267072211542148  0.9363922419491152  0.8030892856141735  1.0000
  O   O11       1.0  0.385615148448181  0.9184758633218572  0.3049004493162057  1.0000
  O   O12       1.0  0.1687758263442804  0.02046856755815485  0.17726534427203425  1.0000
data_image5
_chemical_formula_structural       Na4C8N4O12
_chemical_formula_sum              "Na4 C8 N4 O12"
_cell_length_a       5.423166
_cell_length_b       3.6248270000000002
_cell_length_c       20.275782753631116
_cell_angle_alpha    88.79220736031418
_cell_angle_beta     90.0
_cell_angle_gamma    90.0

_space_group_name_H-M_alt    "P 1"
_space_group_IT_number       1

loop_
  _space_group_symop_operation_xyz
  'x, y, z'

loop_
  _atom_site_type_symbol
  _atom_site_label
  _atom_site_symmetry_multiplicity
  _atom_site_fract_x
  _atom_site_fract_y
  _atom_site_fract_z
  _atom_site_occupancy
  Na  Na1       1.0  0.47860909662465345  0.721917207416  0.8665553686149341  1.0000
  Na  Na2       1.0  0.21020457250413718  0.37575290829973707  0.716447941543595  1.0000
  Na  Na3       1.0  0.5361766959132556  0.6972090386556121  0.21227718008420537  1.0000
  Na  Na4       1.0  0.9218121792720853  0.9927886441618281  0.31899187797736744  1.0000
  C   C1        1.0  0.2724847067675273  0.3440518927506102  0.5053564291336883  1.0000
  C   C2        1.0  0.8630288815932229  0.5735550934922256  0.9590569854471956  1.0000
  C   C3        1.0  0.5971324063005172  0.3550495097485363  0.42773896995577937  1.0000
  C   C4        1.0  0.13608375448925258  0.6879561419289024  0.08286233096550032  1.0000
  C   C5        1.0  0.7182384411247057  0.9932911520908931  0.6536374714067428  1.0000
  C   C6        1.0  0.9718448261877507  0.9067875337198722  0.8517524098382376  1.0000
  C   C7        1.0  0.3795652889407876  0.6146770664912558  0.3372130863452645  1.0000
  C   C8        1.0  0.015323836037330674  0.017304945921837955  0.15940550456209343  1.0000
  N   N1        1.0  0.474753438379379  0.5016060512061269  0.48794992237230445  1.0000
  N   N2        1.0  0.9542981753980152  0.7071161076284316  0.9077126029453244  1.0000
  N   N3        1.0  0.5824750395106618  0.4114181534234061  0.3629582519198485  1.0000
  N   N4        1.0  0.9501901971598963  0.7560668356036919  0.11391181114160356  1.0000
  O   O1        1.0  0.10616015868971321  0.24939791982831486  0.5385302496839766  1.0000
  O   O2        1.0  0.6909776145335131  0.309159506665165  0.9576361704012053  1.0000
  O   O3        1.0  0.7447384578470682  0.0761830280211713  0.4333394946763721  1.0000
  O   O4        1.0  0.33628514218288547  0.5790302389745048  0.07198896894299565  1.0000
  O   O5        1.0  0.8808176085683525  0.190982289321302  0.6680427390662428  1.0000
  O   O6        1.0  0.14992590747300064  0.8580801220764295  0.8113997980289258  1.0000
  O   O7        1.0  0.14289168310611092  0.5011826053606924  0.338498500585218  1.0000
  O   O8        1.0  0.853454953580071  0.04015168978815133  0.20423254508129968  1.0000
  O   O9        1.0  0.540305724548181  0.8103354843778983  0.6381042424301784  1.0000
  O   O10       1.0  0.7938123222077889  0.128079550364711  0.8372590698701086  1.0000
  O   O11       1.0  0.42470366258860526  0.8780788098506921  0.29776008790970265  1.0000
  O   O12       1.0  0.1952552265630455  0.1685536687960718  0.16921408855308215  1.0000
data_image6
_chemical_formula_structural       Na4C8N4O12
_chemical_formula_sum              "Na4 C8 N4 O12"
_cell_length_a       5.423166
_cell_length_b       3.6248270000000002
_cell_length_c       20.275782753631116
_cell_angle_alpha    88.79220736031418
_cell_angle_beta     90.0
_cell_angle_gamma    90.0

_space_group_name_H-M_alt    "P 1"
_space_group_IT_number       1

loop_
  _space_group_symop_operation_xyz
  'x, y, z'

loop_
  _atom_site_type_symbol
  _atom_site_label
  _atom_site_symmetry_multiplicity
  _atom_site_fract_x
  _atom_site_fract_y
  _atom_site_fract_z
  _atom_site_occupancy
  Na  Na1       1.0  0.5740012559204094  0.46081360949126204  0.8428821901023783  1.0000
  Na  Na2       1.0  0.18516677192092346  0.49512530825635537  0.755491170527084  1.0000
  Na  Na3       1.0  0.5044117160861301  0.6275033976959496  0.19060600250841297  1.0000
  Na  Na4       1.0  0.7935712365276558  0.9490907015913704  0.3087900952640535  1.0000
  C   C1        1.0  0.22821241164190134  0.1929136359848492  0.5216049821226684  1.0000
  C   C2        1.0  0.902485941039801  0.6666738357543623  0.9352608338037585  1.0000
  C   C3        1.0  0.5310045619605951  0.27339053025085763  0.4318740231697474  1.0000
  C   C4        1.0  0.18010671567413317  0.8508166547921153  0.04807389357435105  1.0000
  C   C5        1.0  0.6488394680162876  0.049412726128572615  0.6755777593987676  1.0000
  C   C6        1.0  0.08213728252640741  0.9155737082914231  0.8475292566930152  1.0000
  C   C7        1.0  0.3586966190979054  0.673689034711132  0.337957942227908  1.0000
  C   C8        1.0  0.042925020645094625  0.9979170824320663  0.1621243550717233  1.0000
  N   N1        1.0  0.3317027477566504  0.0651432390349319  0.4702251821437557  1.0000
  N   N2        1.0  0.10634646067271103  0.6459973119517795  0.8996477331109531  1.0000
  N   N3        1.0  0.50437838677937  0.537020278913189  0.38848172213589677  1.0000
  N   N4        1.0  0.03201347233661167  0.8495999148359378  0.0956196701702957  1.0000
  O   O1        1.0  0.08716664339197654  0.3320089170578937  0.5584889394282623  1.0000
  O   O2        1.0  0.7601563029256964  0.5156705524641089  0.9792290806687128  1.0000
  O   O3        1.0  0.725248000223945  0.17422524495279915  0.44751261479872134  1.0000
  O   O4        1.0  0.3356043497636462  0.8647329132965274  0.005976853374345399  1.0000
  O   O5        1.0  0.844460704130749  0.9014363454224239  0.6894418561366015  1.0000
  O   O6        1.0  0.30810893010635976  0.015308721215342436  0.8284084843637152  1.0000
  O   O7        1.0  0.17039472139385425  0.5127682688765262  0.3582459968393356  1.0000
  O   O8        1.0  0.8761937305871587  0.9302782939161831  0.20202243650029547  1.0000
  O   O9        1.0  0.413365753464671  0.9984005892276646  0.6695244487312009  1.0000
  O   O10       1.0  0.8616486707519607  0.9883337597074138  0.8182522236008065  1.0000
  O   O11       1.0  0.4005135036066726  0.8514979303156446  0.2852716496932056  1.0000
  O   O12       1.0  0.18137870928407634  0.21984075780989198  0.17651937741158719  1.0000
data_image7
_chemical_formula_structural       Na4C8N4O12
_chemical_formula_sum              "Na4 C8 N4 O12"
_cell_length_a       5.423166
_cell_length_b       3.6248270000000002
_cell_length_c       20.275782753631116
_cell_angle_alpha    88.79220736031418
_cell_angle_beta     90.0
_cell_angle_gamma    90.0

_space_group_name_H-M_alt    "P 1"
_space_group_IT_number       1

loop_
  _space_group_symop_operation_xyz
  'x, y, z'

loop_
  _atom_site_type_symbol
  _atom_site_label
  _atom_site_symmetry_multiplicity
  _atom_site_fract_x
  _atom_site_fract_y
  _atom_site_fract_z
  _atom_site_occupancy
  Na  Na1       1.0  0.5298708592172425  0.3310959766489983  0.8724817793643243  1.0000
  Na  Na2       1.0  0.15470191968726624  0.47501490472210395  0.7108907342663648  1.0000
  Na  Na3       1.0  0.37203465058625257  0.788471282999923  0.19877601603331388  1.0000
  Na  Na4       1.0  0.9059794755414876  0.9726652836198135  0.31810303242729926  1.0000
  C   C1        1.0  0.2013726302153288  0.3188370120462025  0.5329448952222431  1.0000
  C   C2        1.0  0.9740646246000373  0.635614782482189  0.9450169592779191  1.0000
  C   C3        1.0  0.4674671794248163  0.36648160117440554  0.4330950818872692  1.0000
  C   C4        1.0  0.3296489558656801  0.027152249349605695  0.0675977029588505  1.0000
  C   C5        1.0  0.6607473050542347  0.8805983085351428  0.6875769828014862  1.0000
  C   C6        1.0  0.11924672278901342  0.945011384136514  0.8296623841612913  1.0000
  C   C7        1.0  0.3704070955473088  0.5628441632513846  0.33185285757025296  1.0000
  C   C8        1.0  0.9675870045447512  0.9000879751557465  0.15477350647484356  1.0000
  N   N1        1.0  0.27258088803617053  0.555714089702633  0.4903763955686122  1.0000
  N   N2        1.0  0.13130406205632664  0.7734766624617092  0.901639247001019  1.0000
  N   N3        1.0  0.5084872553798495  0.30027883555042045  0.3730781034901321  1.0000
  N   N4        1.0  0.16557439418504827  0.036748370931493524  0.11319464381940952  1.0000
  O   O1        1.0  0.12651576954575774  0.1698323566326625  0.5854927547580148  1.0000
  O   O2        1.0  0.855779600757489  0.6698668895342359  0.9968071139882724  1.0000
  O   O3        1.0  0.6139728277364316  0.12980460108437053  0.4651422573863816  1.0000
  O   O4        1.0  0.459219615037243  0.9975442541731862  0.022016229278782353  1.0000
  O   O5        1.0  0.7637860653538375  0.6657133784022705  0.6512255707668249  1.0000
  O   O6        1.0  0.34333997223168317  0.9093027986686576  0.8046078789145942  1.0000
  O   O7        1.0  0.14746504472459804  0.4922280472007521  0.32998678190132485  1.0000
  O   O8        1.0  0.770029516884351  0.6766014256788033  0.1295103848308851  1.0000
  O   O9        1.0  0.5165749082926088  0.1207299294854769  0.7034583923917458  1.0000
  O   O10       1.0  0.9420364806895554  0.9882617097123026  0.7895689747120643  1.0000
  O   O11       1.0  0.4369335775995038  0.8134113337381846  0.29490985565829636  1.0000
  O   O12       1.0  0.9462592988840194  0.110592505934342  0.20469189028328455  1.0000
data_image8
_chemical_formula_structural       Na4C8N4O12
_chemical_formula_sum              "Na4 C8 N4 O12"
_cell_length_a       5.423166
_cell_length_b       3.6248270000000002
_cell_length_c       20.275782753631116
_cell_angle_alpha    88.79220736031418
_cell_angle_beta     90.0
_cell_angle_gamma    90.0

_space_group_name_H-M_alt    "P 1"
_space_group_IT_number       1

loop_
  _space_group_symop_operation_xyz
  'x, y, z'

loop_
  _atom_site_type_symbol
  _atom_site_label
  _atom_site_symmetry_multiplicity
  _atom_site_fract_x
  _atom_site_fract_y
  _atom_site_fract_z
  _atom_site_occupancy
  Na  Na1       1.0  0.45979409289000245  0.13928128914431287  0.8898802525493409  1.0000
  Na  Na2       1.0  0.14424327709724225  0.4021946725893508  0.700354686344467  1.0000
  Na  Na3       1.0  0.5199076892005446  0.5824652061668487  0.17119008891334228  1.0000
  Na  Na4       1.0  0.8375759781645326  0.08751059352218658  0.3141057544988091  1.0000
  C   C1        1.0  0.18990773119351356  0.5130708014122379  0.5381874491518961  1.0000
  C   C2        1.0  0.9245737919179723  0.6495604424794026  0.9171685809262351  1.0000
  C   C3        1.0  0.4827220503832149  0.3738224760354813  0.4572448975136833  1.0000
  C   C4        1.0  0.24816521337727493  0.20163580574967566  0.08631062794785282  1.0000
  C   C5        1.0  0.6645130700662193  0.9583769262808715  0.6521790628274231  1.0000
  C   C6        1.0  0.11024798068035906  0.8478027213528125  0.8207826773025749  1.0000
  C   C7        1.0  0.4264784063330825  0.46261115622709786  0.3543013840581508  1.0000
  C   C8        1.0  0.9649788632536459  0.9246280601537947  0.15430441168443182  1.0000
  N   N1        1.0  0.26693742699310957  0.5545924150863967  0.4824682216297521  1.0000
  N   N2        1.0  0.9616753557792538  0.9253420099273401  0.8766125989045986  1.0000
  N   N3        1.0  0.5760253068709893  0.5184737362166949  0.40580720884287147  1.0000
  N   N4        1.0  0.2362709087092969  0.11932990059765203  0.14703117196482238  1.0000
  O   O1        1.0  0.14620544419968193  0.4695233205475657  0.596721890472534  1.0000
  O   O2        1.0  0.927474214498661  0.5100675716650114  0.968609039309877  1.0000
  O   O3        1.0  0.6064422567465564  0.18659822969885756  0.49564606664538036  1.0000
  O   O4        1.0  0.3163771183128539  0.23442509530315458  0.03590403621218561  1.0000
  O   O5        1.0  0.8202264760735133  0.7324668499510324  0.638622356910704  1.0000
  O   O6        1.0  0.2741419956897173  0.5976304171225123  0.828462801452231  1.0000
  O   O7        1.0  0.19408854710309587  0.36992373068313045  0.36815832690019495  1.0000
  O   O8        1.0  0.8551049074609395  0.8190680120919824  0.1015398010564984  1.0000
  O   O9        1.0  0.4796224045930301  0.1285325721367745  0.669622043800565  1.0000
  O   O10       1.0  0.9847591933891174  0.9101635417749263  0.7704706590118615  1.0000
  O   O11       1.0  0.511917335066619  0.6252829965555016  0.30069932662503096  1.0000
  O   O12       1.0  0.8980010824367318  0.055436313253414804  0.2102386789988935  1.0000
data_image9
_chemical_formula_structural       Na4C8N4O12
_chemical_formula_sum              "Na4 C8 N4 O12"
_cell_length_a       5.423166
_cell_length_b       3.6248270000000002
_cell_length_c       20.275782753631116
_cell_angle_alpha    88.79220736031418
_cell_angle_beta     90.0
_cell_angle_gamma    90.0

_space_group_name_H-M_alt    "P 1"
_space_group_IT_number       1

loop_
  _space_group_symop_operation_xyz
  'x, y, z'

loop_
  _atom_site_type_symbol
  _atom_site_label
  _atom_site_symmetry_multiplicity
  _atom_site_fract_x
  _atom_site_fract_y
  _atom_site_fract_z
  _atom_site_occupancy
  Na  Na1       1.0  0.3773371137215303  0.9906947560661412  0.9287546844552529  1.0000
  Na  Na2       1.0  0.0007010975219482909  0.4573167925020829  0.6789485178898235  1.0000
  Na  Na3       1.0  0.49502806571489677  0.6084817362779323  0.1607266836181483  1.0000
  Na  Na4       1.0  0.9276189646223529  0.02687876750298816  0.34559371233050834  1.0000
  C   C1        1.0  0.25508101276828676  0.5464502121527345  0.5523637310518541  1.0000
  C   C2        1.0  0.8371020989090419  0.5705176438496622  0.9326969854807389  1.0000
  C   C3        1.0  0.5553309554362005  0.11276086095032199  0.44516694818098645  1.0000
  C   C4        1.0  0.3219883409772273  0.3620809095073645  0.04619740854326357  1.0000
  C   C5        1.0  0.6858578235707128  0.9582192616768317  0.661458856131483  1.0000
  C   C6        1.0  0.10430634585611173  0.7522848950531696  0.8396207136133224  1.0000
  C   C7        1.0  0.37587216873507723  0.48801477909678465  0.344199521783638  1.0000
  C   C8        1.0  0.01281077389746299  0.06750274147735746  0.13611327087999026  1.0000
  N   N1        1.0  0.20344612949619337  0.41245082727298704  0.5004872399634424  1.0000
  N   N2        1.0  0.8870885995278929  0.7607768245315922  0.882474478209625  1.0000
  N   N3        1.0  0.5524854670317806  0.33482821578804994  0.39030423357815447  1.0000
  N   N4        1.0  0.21244547166279792  0.10847839601766318  0.08810736317808217  1.0000
  O   O1        1.0  0.2870278449468671  0.6240104284092017  0.6096962731756961  1.0000
  O   O2        1.0  0.7526604475023896  0.47957446440734564  0.9842302933361571  1.0000
  O   O3        1.0  0.6850096578324076  0.034295134553206715  0.4924508281546315  1.0000
  O   O4        1.0  0.33684715594074466  0.4622138091287349  0.9897456948318208  1.0000
  O   O5        1.0  0.8144587590660676  0.8847245176881166  0.6138582044097044  1.0000
  O   O6        1.0  0.2822687869830293  0.593180943810839  0.8701173207971731  1.0000
  O   O7        1.0  0.16967342634368449  0.6059516473672861  0.35100361403034724  1.0000
  O   O8        1.0  0.8108722597747251  0.9259526892759593  0.12015431762314895  1.0000
  O   O9        1.0  0.5429594295592328  0.0728564748965066  0.7018580989633673  1.0000
  O   O10       1.0  0.07947122567283182  0.8347515285013022  0.7732751615544108  1.0000
  O   O11       1.0  0.5231635818051572  0.5773551082470118  0.2909106047278635  1.0000
  O   O12       1.0  0.020929944241435936  0.22160565903253393  0.19236954896158626  1.0000
data_image10
_chemical_formula_structural       Na4C8N4O12
_chemical_formula_sum              "Na4 C8 N4 O12"
_cell_length_a       5.423166
_cell_length_b       3.6248270000000002
_cell_length_c       20.275782753631116
_cell_angle_alpha    88.79220736031418
_cell_angle_beta     90.0
_cell_angle_gamma    90.0

_space_group_name_H-M_alt    "P 1"
_space_group_IT_number       1

loop_
  _space_group_symop_operation_xyz
  'x, y, z'

loop_
  _atom_site_type_symbol
  _atom_site_label
  _atom_site_symmetry_multiplicity
  _atom_site_fract_x
  _atom_site_fract_y
  _atom_site_fract_z
  _atom_site_occupancy
  Na  Na1       1.0  0.3010527937925905  0.19628440307390865  0.9390964320743844  1.0000
  Na  Na2       1.0  0.13175767118754828  0.3922939687048588  0.6797445464178699  1.0000
  Na  Na3       1.0  0.5447966517576951  0.56891991304477  0.16914573411595266  1.0000
  Na  Na4       1.0  0.9800609965584388  0.9824466948465111  0.37290538869364975  1.0000
  C   C1        1.0  0.265259001740062  0.5161221445564685  0.5317188833867668  1.0000
  C   C2        1.0  0.788111898650762  0.3581058110849452  0.9539660006535562  1.0000
  C   C3        1.0  0.5807538198325859  0.14044522498799003  0.416208629698348  1.0000
  C   C4        1.0  0.2801131544720794  0.5769868655583945  0.0720896410664792  1.0000
  C   C5        1.0  0.600867794297058  0.15168539497761047  0.6468724689125036  1.0000
  C   C6        1.0  0.13702442239954676  0.5380382130232308  0.8012520618585511  1.0000
  C   C7        1.0  0.37646788221925814  0.49617570535661976  0.3141218189404328  1.0000
  C   C8        1.0  0.0576234747823543  0.2003282767429766  0.166772786971792  1.0000
  N   N1        1.0  0.13649832209508203  0.4109601585439717  0.4873811876778979  1.0000
  N   N2        1.0  0.8011968522158892  0.5511392030764067  0.9055629344929877  1.0000
  N   N3        1.0  0.4915259514988142  0.34692127368060255  0.37784004160980794  1.0000
  N   N4        1.0  0.10681172623734159  0.45266805935352616  0.09780776473817936  1.0000
  O   O1        1.0  0.352758072911829  0.6059255983042635  0.5819742117058283  1.0000
  O   O2        1.0  0.7641291853915753  0.13875489795001783  0.0027167231293758753  1.0000
  O   O3        1.0  0.5853615929802737  0.8808300842284695  0.4610595243966429  1.0000
  O   O4        1.0  0.321205356974741  0.6555923293575823  0.014665964870594414  1.0000
  O   O5        1.0  0.818177752559676  0.0826940608028568  0.6371546374745238  1.0000
  O   O6        1.0  0.26595993638688314  0.31882013480603516  0.8266299170920698  1.0000
  O   O7        1.0  0.21375119989346178  0.7011599322516734  0.3191156081564985  1.0000
  O   O8        1.0  0.8723155754200329  0.0002517084306600798  0.16200242336829046  1.0000
  O   O9        1.0  0.4663832497040898  0.06979319294527508  0.6941609971127649  1.0000
  O   O10       1.0  0.010898873151127697  0.7181328604962106  0.7663767644175576  1.0000
  O   O11       1.0  0.5741821814350206  0.5523718270578256  0.27794235088351665  1.0000
  O   O12       1.0  0.16369775160659936  0.2958991159071416  0.21319928542815503  1.0000
data_image11
_chemical_formula_structural       Na4C8N4O12
_chemical_formula_sum              "Na4 C8 N4 O12"
_cell_length_a       5.423166
_cell_length_b       3.6248270000000002
_cell_length_c       20.275782753631116
_cell_angle_alpha    88.79220736031418
_cell_angle_beta     90.0
_cell_angle_gamma    90.0

_space_group_name_H-M_alt    "P 1"
_space_group_IT_number       1

loop_
  _space_group_symop_operation_xyz
  'x, y, z'

loop_
  _atom_site_type_symbol
  _atom_site_label
  _atom_site_symmetry_multiplicity
  _atom_site_fract_x
  _atom_site_fract_y
  _atom_site_fract_z
  _atom_site_occupancy
  Na  Na1       1.0  0.3073905483336022  0.22745426431484977  0.9382885172298288  1.0000
  Na  Na2       1.0  0.11820685996795052  0.6300932683930853  0.6513967354885507  1.0000
  Na  Na3       1.0  0.4580650715828825  0.5671942249830623  0.18368470092018185  1.0000
  Na  Na4       1.0  0.0987359631333542  0.8958702030620822  0.3749496946833822  1.0000
  C   C1        1.0  0.1652969620585359  0.5338360359131854  0.5095881361280689  1.0000
  C   C2        1.0  0.7769545452792639  0.21627373461473554  0.9363087112091701  1.0000
  C   C3        1.0  0.6361767325466645  0.05694077252471586  0.43859080904673703  1.0000
  C   C4        1.0  0.21482088231353536  0.6719291610264437  0.06406857646714065  1.0000
  C   C5        1.0  0.5399431180140044  0.03950179437921042  0.6700102967069961  1.0000
  C   C6        1.0  0.04311953676528368  0.6162836675725906  0.820209713048594  1.0000
  C   C7        1.0  0.5132913778710344  0.41385024893417177  0.3186113872235004  1.0000
  C   C8        1.0  0.0658814857759158  0.21576032455798644  0.1561709506389838  1.0000
  N   N1        1.0  0.0851657782326327  0.40871316589845597  0.45867086528585216  1.0000
  N   N2        1.0  0.7696573998175866  0.4480781160905639  0.8868413629565552  1.0000
  N   N3        1.0  0.6442285722585566  0.0705840724996796  0.3769103827652658  1.0000
  N   N4        1.0  0.10882897605998076  0.5195454322318116  0.10233869098289149  1.0000
  O   O1        1.0  0.2518922494023921  0.6808716792149796  0.559341304200738  1.0000
  O   O2        1.0  0.7882981838517986  0.04975158941095115  0.9893046879831598  1.0000
  O   O3        1.0  0.6966577130967153  0.04161907845360955  0.4977315112068249  1.0000
  O   O4        1.0  0.27297220604365474  0.8211075718065384  0.013795534551665201  1.0000
  O   O5        1.0  0.6828282200250854  0.22230868453171482  0.6404390048171958  1.0000
  O   O6        1.0  0.244355296104533  0.6190217314207677  0.8463201597530876  1.0000
  O   O7        1.0  0.3065482799694952  0.5179972504208551  0.33479831269056154  1.0000
  O   O8        1.0  0.8198308504395939  0.14898498039840644  0.15337788748232956  1.0000
  O   O9        1.0  0.5185631549477632  0.7329428454831929  0.7011080222686916  1.0000
  O   O10       1.0  0.9132259997130785  0.7010959424277217  0.7731334880234683  1.0000
  O   O11       1.0  0.7054674896517704  0.5772307132551451  0.29980283721882534  1.0000
  O   O12       1.0  0.20952056274412423  0.08561008355657562  0.19564411192374973  1.0000
data_image12
_chemical_formula_structural       Na4C8N4O12
_chemical_formula_sum              "Na4 C8 N4 O12"
_cell_length_a       5.423166
_cell_length_b       3.6248270000000002
_cell_length_c       20.275782753631116
_cell_angle_alpha    88.79220736031418
_cell_angle_beta     90.0
_cell_angle_gamma    90.0

_space_group_name_H-M_alt    "P 1"
_space_group_IT_number       1

loop_
  _space_group_symop_operation_xyz
  'x, y, z'

loop_
  _atom_site_type_symbol
  _atom_site_label
  _atom_site_symmetry_multiplicity
  _atom_site_fract_x
  _atom_site_fract_y
  _atom_site_fract_z
  _atom_site_occupancy
  Na  Na1       1.0  0.3610383894057454  0.22828172079793732  0.9247263351321804  1.0000
  Na  Na2       1.0  0.9615591154656455  0.48454558792748315  0.6517315539773717  1.0000
  Na  Na3       1.0  0.5893594221312082  0.9615241281451302  0.23026451205063067  1.0000
  Na  Na4       1.0  0.06385593272442991  0.7554382374565831  0.3699021911669859  1.0000
  C   C1        1.0  0.187838453868421  0.5200924904905552  0.5266593200262284  1.0000
  C   C2        1.0  0.7641182217300622  0.30605917013534123  0.8937677153472883  1.0000
  C   C3        1.0  0.6775762352932337  0.26916355253524293  0.4674412549363003  1.0000
  C   C4        1.0  0.18705077710402107  0.5730045331541784  0.03865715379913187  1.0000
  C   C5        1.0  0.5449191661801106  0.9789790255190459  0.7100513924016767  1.0000
  C   C6        1.0  0.037911003625708685  0.647568377925261  0.8040419896311243  1.0000
  C   C7        1.0  0.5988040463682788  0.2823427471682287  0.34478235285150494  1.0000
  C   C8        1.0  0.9731431143278375  0.15775303736869573  0.12449809302186282  1.0000
  N   N1        1.0  0.23026177050571983  0.3470813072289435  0.4758379071635928  1.0000
  N   N2        1.0  0.6908257190675864  0.48434567792618  0.8442308291516859  1.0000
  N   N3        1.0  0.686166174454882  0.2533737411746219  0.4081718433235216  1.0000
  N   N4        1.0  0.0066949792279495934  0.4229413458233626  0.06875459565352426  1.0000
  O   O1        1.0  0.17352203776672198  0.7308380785406005  0.5733475673965446  1.0000
  O   O2        1.0  0.9035277550689488  0.24008852786814594  0.9361398202660479  1.0000
  O   O3        1.0  0.6775621142001809  0.2583165897303194  0.5297953475986386  1.0000
  O   O4        1.0  0.37862914637994766  0.7042072104691834  0.03520551280280983  1.0000
  O   O5        1.0  0.7300733793852351  0.045308027190206435  0.6708072027243186  1.0000
  O   O6        1.0  0.19425799673811098  0.6440605644942611  0.8427180834967926  1.0000
  O   O7        1.0  0.3840548625486663  0.21742477387509498  0.333686021527972  1.0000
  O   O8        1.0  0.7508830620944184  0.16783968284713988  0.11986556926064951  1.0000
  O   O9        1.0  0.3468306115826121  0.9454630550950242  0.7344390378459602  1.0000
  O   O10       1.0  0.9471803395895128  0.6297445868499525  0.7487781941324063  1.0000
  O   O11       1.0  0.788506345958204  0.4352953128292887  0.30478795788808144  1.0000
  O   O12       1.0  0.12749618422195833  0.9966855198614273  0.1616331056645889  1.0000
data_image13
_chemical_formula_structural       Na4C8N4O12
_chemical_formula_sum              "Na4 C8 N4 O12"
_cell_length_a       5.423166
_cell_length_b       3.6248270000000002
_cell_length_c       20.275782753631116
_cell_angle_alpha    88.79220736031418
_cell_angle_beta     90.0
_cell_angle_gamma    90.0

_space_group_name_H-M_alt    "P 1"
_space_group_IT_number       1

loop_
  _space_group_symop_operation_xyz
  'x, y, z'

loop_
  _atom_site_type_symbol
  _atom_site_label
  _atom_site_symmetry_multiplicity
  _atom_site_fract_x
  _atom_site_fract_y
  _atom_site_fract_z
  _atom_site_occupancy
  Na  Na1       1.0  0.24094862413300577  0.0012888732580653537  0.9220987780558123  1.0000
  Na  Na2       1.0  0.9057135630721115  0.9584460770481308  0.6268207272741696  1.0000
  Na  Na3       1.0  0.5055556478409037  0.9942042381258298  0.21005931875380351  1.0000
  Na  Na4       1.0  0.17719196267948956  0.9518756684041888  0.4198354652843582  1.0000
  C   C1        1.0  0.3039422127293494  0.40311938805560094  0.5533360771018064  1.0000
  C   C2        1.0  0.7714519184134131  0.35078514935433747  0.9177912933999387  1.0000
  C   C3        1.0  0.759950299857157  0.3702914108995986  0.4628798715909528  1.0000
  C   C4        1.0  0.36590606467879994  0.3790419381272472  0.04239631867568059  1.0000
  C   C5        1.0  0.4048529411014087  0.1126677617227867  0.6870483708885221  1.0000
  C   C6        1.0  0.8712093834122214  0.6144753141891002  0.7802875682295438  1.0000
  C   C7        1.0  0.5782375135111847  0.4899837346112198  0.32899199456027123  1.0000
  C   C8        1.0  0.034941207907629  0.23535290746917448  0.1352602471011323  1.0000
  N   N1        1.0  0.397394812689314  0.3001508199310581  0.5022541539327651  1.0000
  N   N2        1.0  0.720075647810186  0.47144709706067367  0.8593435147777313  1.0000
  N   N3        1.0  0.7558597343994385  0.40967220099592805  0.40491076174906526  1.0000
  N   N4        1.0  0.19977384535664822  0.3643482829611857  0.08343622040177873  1.0000
  O   O1        1.0  0.19270682434571687  0.5499882646738905  0.5995169976761776  1.0000
  O   O2        1.0  0.8942365861786052  0.2547081864590227  0.9647344232982566  1.0000
  O   O3        1.0  0.8578701329124103  0.31477549430059465  0.5163092462758654  1.0000
  O   O4        1.0  0.46486857368053336  0.5739714163832641  0.00212764453479475  1.0000
  O   O5        1.0  0.49205130935166863  0.9306194180123402  0.6478831480879425  1.0000
  O   O6        1.0  0.06110911887661575  0.6958304165648935  0.8124767015112939  1.0000
  O   O7        1.0  0.3516556846761511  0.5073441617728278  0.3328934896740896  1.0000
  O   O8        1.0  0.7901732280330108  0.2637624766510339  0.12834784827569443  1.0000
  O   O9        1.0  0.3240122441667061  0.2310326779495009  0.7384773776484052  1.0000
  O   O10       1.0  0.8015583970900235  0.6228578491204686  0.7202228379802896  1.0000
  O   O11       1.0  0.7532417634518217  0.5305316011775273  0.2950715919116345  1.0000
  O   O12       1.0  0.13707484747561594  0.09421270840154095  0.18518536939411856  1.0000
data_image14
_chemical_formula_structural       Na4C8N4O12
_chemical_formula_sum              "Na4 C8 N4 O12"
_cell_length_a       5.423166
_cell_length_b       3.6248270000000002
_cell_length_c       20.275782753631116
_cell_angle_alpha    88.79220736031418
_cell_angle_beta     90.0
_cell_angle_gamma    90.0

_space_group_name_H-M_alt    "P 1"
_space_group_IT_number       1

loop_
  _space_group_symop_operation_xyz
  'x, y, z'

loop_
  _atom_site_type_symbol
  _atom_site_label
  _atom_site_symmetry_multiplicity
  _atom_site_fract_x
  _atom_site_fract_y
  _atom_site_fract_z
  _atom_site_occupancy
  Na  Na1       1.0  0.4178086623365689  0.7788610875300387  0.882745458308743  1.0000
  Na  Na2       1.0  0.808620510999302  0.8455473136135208  0.5966630744744355  1.0000
  Na  Na3       1.0  0.6344358286087698  0.7855543139585378  0.17816922658112816  1.0000
  Na  Na4       1.0  0.2477899629231166  0.3462127993785629  0.39725929056696585  1.0000
  C   C1        1.0  0.12218930503487266  0.4501434448535858  0.5802497291299825  1.0000
  C   C2        1.0  0.8066198992053354  0.3088702904700308  0.9043641295951006  1.0000
  C   C3        1.0  0.8117597881756812  0.31882318944636806  0.43750145464865947  1.0000
  C   C4        1.0  0.3108351257974469  0.1500992940979855  0.053725553352383784  1.0000
  C   C5        1.0  0.3881131093831294  0.1114294127554063  0.6968606061850737  1.0000
  C   C6        1.0  0.8495375537118902  0.7149677760222326  0.7923966794417455  1.0000
  C   C7        1.0  0.6872208833977573  0.6837728180798646  0.35314186806903686  1.0000
  C   C8        1.0  0.05704451333782257  0.24404229526947585  0.1528414021058225  1.0000
  N   N1        1.0  0.25876423028197504  0.6372374727103988  0.5459898905737038  1.0000
  N   N2        1.0  0.6360405745598392  0.26461290530742665  0.8661313177120766  1.0000
  N   N3        1.0  0.8713610798676759  0.5801695772984642  0.4037257496265609  1.0000
  N   N4        1.0  0.20423265185768624  0.9410177779763428  0.09772344537437137  1.0000
  O   O1        1.0  0.013005104656814166  0.3059516457042911  0.6292685543534232  1.0000
  O   O2        1.0  0.024743687904007272  0.26982953940380217  0.9169697925781909  1.0000
  O   O3        1.0  0.7141692975519779  0.09677039011875212  0.4700491772438327  1.0000
  O   O4        1.0  0.391669577018457  0.3714407465256777  0.0179102612794119  1.0000
  O   O5        1.0  0.49197073259758245  0.022659579667507312  0.6475401421205644  1.0000
  O   O6        1.0  0.023767301678049364  0.7999539404462992  0.8241713533632546  1.0000
  O   O7        1.0  0.48600788041950954  0.8288152356030208  0.3857436007618174  1.0000
  O   O8        1.0  0.8372520694130632  0.2163086982386597  0.13187794437910547  1.0000
  O   O9        1.0  0.3356197082830919  0.2942428984540397  0.7474341112429673  1.0000
  O   O10       1.0  0.6853953604102091  0.6362055517787022  0.7573596791128494  1.0000
  O   O11       1.0  0.6859908330414258  0.6419334987222666  0.29293230383032665  1.0000
  O   O12       1.0  0.1627706757674673  0.39234487081801284  0.19741899489250936  1.0000
data_image15
_chemical_formula_structural       Na4C8N4O12
_chemical_formula_sum              "Na4 C8 N4 O12"
_cell_length_a       5.423166
_cell_length_b       3.6248270000000002
_cell_length_c       20.275782753631116
_cell_angle_alpha    88.79220736031418
_cell_angle_beta     90.0
_cell_angle_gamma    90.0

_space_group_name_H-M_alt    "P 1"
_space_group_IT_number       1

loop_
  _space_group_symop_operation_xyz
  'x, y, z'

loop_
  _atom_site_type_symbol
  _atom_site_label
  _atom_site_symmetry_multiplicity
  _atom_site_fract_x
  _atom_site_fract_y
  _atom_site_fract_z
  _atom_site_occupancy
  Na  Na1       1.0  0.3886286468752988  0.48707670944502446  0.8894212556296227  1.0000
  Na  Na2       1.0  0.5674549801877223  0.811425064413094  0.5689901658709079  1.0000
  Na  Na3       1.0  0.5817003311087541  0.5061574249263009  0.1394662900704262  1.0000
  Na  Na4       1.0  0.20979445726062607  0.3370045102028474  0.37325072681204174  1.0000
  C   C1        1.0  0.032028299063283805  0.5476165006149403  0.6025295853484977  1.0000
  C   C2        1.0  0.9034899751743172  0.15772244725111206  0.9312686089518639  1.0000
  C   C3        1.0  0.7756774004949252  0.5024292789477968  0.45217129859516486  1.0000
  C   C4        1.0  0.4062577863586878  0.3158265131328495  0.04653151629010009  1.0000
  C   C5        1.0  0.4042465119657939  0.3335873540756218  0.6978219687657957  1.0000
  C   C6        1.0  0.8864424400883508  0.7357135349512538  0.7889704477714838  1.0000
  C   C7        1.0  0.5997837067973417  0.7767817481353025  0.3294478062752713  1.0000
  C   C8        1.0  0.109299551334189  0.1551323342225368  0.13570175826491954  1.0000
  N   N1        1.0  0.20710348391655325  0.5257807388816301  0.5610967681835316  1.0000
  N   N2        1.0  0.7000235765088231  0.07726801564188168  0.9070960478215461  1.0000
  N   N3        1.0  0.8311333209761286  0.47301260659658995  0.3919854527438681  1.0000
  N   N4        1.0  0.21030732344670544  0.16048925035389683  0.07084501095614036  1.0000
  O   O1        1.0  0.9235067720892991  0.598124197981379  0.651203789997452  1.0000
  O   O2        1.0  0.10223282146467616  0.11102084669613177  0.956509478963085  1.0000
  O   O3        1.0  0.8211458244208931  0.3956663271632278  0.5102011609361408  1.0000
  O   O4        1.0  0.6199881764244782  0.3793766784748438  0.045126564829471534  1.0000
  O   O5        1.0  0.42032223183472667  0.12679110351241518  0.6506419733375596  1.0000
  O   O6        1.0  0.07049192587832001  0.7041720928117852  0.8225109133393304  1.0000
  O   O7        1.0  0.42184397639608473  0.9016235952188146  0.36508783228255764  1.0000
  O   O8        1.0  0.9396374208685087  0.9437793050410246  0.1491157573409604  1.0000
  O   O9        1.0  0.34010828701793777  0.3859247306767499  0.7542369495446665  1.0000
  O   O10       1.0  0.7186875269712792  0.8361378621466535  0.7598665275097939  1.0000
  O   O11       1.0  0.7327205999766339  0.7247465747577146  0.27936191993843223  1.0000
  O   O12       1.0  0.21826611487738112  0.4084917747287389  0.16990000121936039  1.0000
data_image16
_chemical_formula_structural       Na4C8N4O12
_chemical_formula_sum              "Na4 C8 N4 O12"
_cell_length_a       5.423166
_cell_length_b       3.6248270000000002
_cell_length_c       20.275782753631116
_cell_angle_alpha    88.79220736031418
_cell_angle_beta     90.0
_cell_angle_gamma    90.0

_space_group_name_H-M_alt    "P 1"
_space_group_IT_number       1

loop_
  _space_group_symop_operation_xyz
  'x, y, z'

loop_
  _atom_site_type_symbol
  _atom_site_label
  _atom_site_symmetry_multiplicity
  _atom_site_fract_x
  _atom_site_fract_y
  _atom_site_fract_z
  _atom_site_occupancy
  Na  Na1       1.0  0.3003471390117198  0.4843374000567824  0.9098143102445228  1.0000
  Na  Na2       1.0  0.6001753591516752  0.9964073003770292  0.5743221290930302  1.0000
  Na  Na3       1.0  0.8111819357819471  0.521025339277859  0.21964125613874916  1.0000
  Na  Na4       1.0  0.10977135794398118  0.40170554243396733  0.344539421577035  1.0000
  C   C1        1.0  0.14793419136854905  0.8095659380960303  0.568672654193527  1.0000
  C   C2        1.0  0.8003620277060222  0.9210703228340353  0.907845281071335  1.0000
  C   C3        1.0  0.7054166588061235  0.5366304559466506  0.4586384230183795  1.0000
  C   C4        1.0  0.48168490340071024  0.21672939713375827  0.047117722485308454  1.0000
  C   C5        1.0  0.4167041980849301  0.13542905062585509  0.7308607637888735  1.0000
  C   C6        1.0  0.9363882729347136  0.8402981372430802  0.775619034520606  1.0000
  C   C7        1.0  0.6107944050946239  0.7637928327678857  0.3554965017834268  1.0000
  C   C8        1.0  0.11702033499273745  0.08702600683244155  0.1345331415923442  1.0000
  N   N1        1.0  0.23742746807984977  0.8323960395962527  0.5125396018959636  1.0000
  N   N2        1.0  0.5894107119549494  0.9422289964660964  0.8948904389929381  1.0000
  N   N3        1.0  0.7342761962503768  0.7962852325779154  0.41778048888288793  1.0000
  N   N4        1.0  0.25987941638055734  0.22048531805183447  0.06550177760041483  1.0000
  O   O1        1.0  0.9939524861657604  0.7789220250685489  0.6167904905770567  1.0000
  O   O2        1.0  0.005199785089539555  0.8350506166485363  0.9293315515095631  1.0000
  O   O3        1.0  0.5662823353779608  0.32101560412652314  0.47723084199194327  1.0000
  O   O4        1.0  0.6665275057853555  0.28116278715088794  0.012789896536845943  1.0000
  O   O5        1.0  0.4678850485956414  0.18926614748383042  0.6748720383485041  1.0000
  O   O6        1.0  0.9410514945886975  0.5812375079210608  0.8134937058322447  1.0000
  O   O7        1.0  0.3937252029137019  0.9022260099161551  0.35202684815808166  1.0000
  O   O8        1.0  0.886798281105657  0.9999012975115585  0.14266287494869795  1.0000
  O   O9        1.0  0.4342529305708526  0.24948202177069345  0.7860583215470293  1.0000
  O   O10       1.0  0.923093981698175  0.06548919538726823  0.7378799861953367  1.0000
  O   O11       1.0  0.7167788502149437  0.5222217480640231  0.3176065099877269  1.0000
  O   O12       1.0  0.261574061327786  0.09010747021480636  0.18186609516085975  1.0000
data_image17
_chemical_formula_structural       Na4C8N4O12
_chemical_formula_sum              "Na4 C8 N4 O12"
_cell_length_a       5.423166
_cell_length_b       3.6248270000000002
_cell_length_c       20.275782753631116
_cell_angle_alpha    88.79220736031418
_cell_angle_beta     90.0
_cell_angle_gamma    90.0

_space_group_name_H-M_alt    "P 1"
_space_group_IT_number       1

loop_
  _space_group_symop_operation_xyz
  'x, y, z'

loop_
  _atom_site_type_symbol
  _atom_site_label
  _atom_site_symmetry_multiplicity
  _atom_site_fract_x
  _atom_site_fract_y
  _atom_site_fract_z
  _atom_site_occupancy
  Na  Na1       1.0  0.27912221177856317  0.2823951707833031  0.9138894305930361  1.0000
  Na  Na2       1.0  0.6503416620415614  0.13951366269812548  0.5951406844716768  1.0000
  Na  Na3       1.0  0.7261663060826222  0.6422643105913264  0.17567463649442122  1.0000
  Na  Na4       1.0  0.2155101409979856  0.24618511117182723  0.2979163945106158  1.0000
  C   C1        1.0  0.07668682852333318  0.7850257681272691  0.5832963619435458  1.0000
  C   C2        1.0  0.7501820868679224  0.8499624620217707  0.9240841518217617  1.0000
  C   C3        1.0  0.6428745135924792  0.6103280599923029  0.46759251708249083  1.0000
  C   C4        1.0  0.5681339585389664  0.08958529961492023  0.0416797355666654  1.0000
  C   C5        1.0  0.4314699783148594  0.3778010294259646  0.7341078482566347  1.0000
  C   C6        1.0  0.8038242027696352  0.7232972757733439  0.7603183943447757  1.0000
  C   C7        1.0  0.5991305639873111  0.7559206956986504  0.3450165021034292  1.0000
  C   C8        1.0  0.2906550313496885  0.13447839755841717  0.14419947661835789  1.0000
  N   N1        1.0  0.14426089068252326  0.07200538765924791  0.5599294594333218  1.0000
  N   N2        1.0  0.5564795341750198  0.7888423293633435  0.9477367181948433  1.0000
  N   N3        1.0  0.691225028312388  0.7179291206999694  0.4085862057479681  1.0000
  N   N4        1.0  0.3424260967621473  0.1516012026064395  0.04053591463919029  1.0000
  O   O1        1.0  0.9627072777745815  0.5342822673622417  0.614179748002846  1.0000
  O   O2        1.0  0.9773441602337832  0.8511235021233545  0.9119032466069156  1.0000
  O   O3        1.0  0.5351506278715737  0.7639118021628782  0.5132544807723208  1.0000
  O   O4        1.0  0.7850857715026185  0.06861196040318052  0.05074595886537479  1.0000
  O   O5        1.0  0.45252815449612693  0.3973330979582326  0.6758829765498202  1.0000
  O   O6        1.0  0.8012254054570006  0.521754454346069  0.811053563933866  1.0000
  O   O7        1.0  0.34470129299610547  0.788152539321231  0.3460546946395309  1.0000
  O   O8        1.0  0.07199670513362522  0.11771915076043472  0.17386561316351937  1.0000
  O   O9        1.0  0.3426259408683262  0.19288164822696974  0.7754311114412249  1.0000
  O   O10       1.0  0.8201470587108112  0.8988796985020817  0.7134338098573354  1.0000
  O   O11       1.0  0.7392503705062915  0.7652364988701691  0.29812902803426033  1.0000
  O   O12       1.0  0.4653139892256154  0.09486081277631131  0.1785862497587573  1.0000
data_image18
_chemical_formula_structural       Na4C8N4O12
_chemical_formula_sum              "Na4 C8 N4 O12"
_cell_length_a       5.423166
_cell_length_b       3.6248270000000002
_cell_length_c       20.275782753631116
_cell_angle_alpha    88.79220736031418
_cell_angle_beta     90.0
_cell_angle_gamma    90.0

_space_group_name_H-M_alt    "P 1"
_space_group_IT_number       1

loop_
  _space_group_symop_operation_xyz
  'x, y, z'

loop_
  _atom_site_type_symbol
  _atom_site_label
  _atom_site_symmetry_multiplicity
  _atom_site_fract_x
  _atom_site_fract_y
  _atom_site_fract_z
  _atom_site_occupancy
  Na  Na1       1.0  0.3310148241934023  0.4012959204897082  0.9165752993159024  1.0000
  Na  Na2       1.0  0.5990206530694673  0.35603102727861424  0.6056614588254209  1.0000
  Na  Na3       1.0  0.8275120056748426  0.7072780221118463  0.15757576765815548  1.0000
  Na  Na4       1.0  0.9865103323165064  0.03265622218602326  0.27023764323025207  1.0000
  C   C1        1.0  0.03284183718736739  0.9389996681632745  0.5876608263115638  1.0000
  C   C2        1.0  0.8345872295786623  0.8309228989420556  0.9227863837976825  1.0000
  C   C3        1.0  0.7463843694965738  0.7080940071622459  0.4329726373221563  1.0000
  C   C4        1.0  0.5461418336354691  0.2596373583874474  0.06677830972302974  1.0000
  C   C5        1.0  0.30875808689839956  0.27816229519642444  0.759563554000693  1.0000
  C   C6        1.0  0.8387839459008204  0.6387170995349915  0.7627548893662143  1.0000
  C   C7        1.0  0.5624296762483677  0.6220336725650667  0.314371986959848  1.0000
  C   C8        1.0  0.3371655275757435  0.14127319663119908  0.153719418892003  1.0000
  N   N1        1.0  0.23096508498902987  0.06738271408066443  0.5715276899938552  1.0000
  N   N2        1.0  0.5974962636396726  0.8109097136497068  0.9148305778569933  1.0000
  N   N3        1.0  0.6679181787039508  0.7572272606051231  0.3811974302381998  1.0000
  N   N4        1.0  0.3496883862746307  0.0845617032745567  0.08469931602462213  1.0000
  O   O1        1.0  0.8771785358599125  0.7057280168492281  0.605434404947636  1.0000
  O   O2        1.0  0.043546393269303874  0.7509640510144975  0.9321184099895595  1.0000
  O   O3        1.0  0.7293811441224188  0.6545580801678125  0.49251781151328716  1.0000
  O   O4        1.0  0.7727578705061091  0.21449077560392427  0.07484612958363376  1.0000
  O   O5        1.0  0.2884331334458604  0.4312733551663268  0.7131200342292878  1.0000
  O   O6        1.0  0.759040568755978  0.4622919737693349  0.8094816300929849  1.0000
  O   O7        1.0  0.33555986263713844  0.6374046179165266  0.3138197417602441  1.0000
  O   O8        1.0  0.13329074196779112  0.33216406761475736  0.16256358355464592  1.0000
  O   O9        1.0  0.34059408806083885  0.1940378525587747  0.8183810554604881  1.0000
  O   O10       1.0  0.9111732659037975  0.8506337401958874  0.7214255666955955  1.0000
  O   O11       1.0  0.743952263244014  0.5295298933109953  0.278258284585923  1.0000
  O   O12       1.0  0.4153092523412645  0.9080960265300196  0.19122079165345351  1.0000
data_image19
_chemical_formula_structural       Na4C8N4O12
_chemical_formula_sum              "Na4 C8 N4 O12"
_cell_length_a       5.423166
_cell_length_b       3.6248270000000002
_cell_length_c       20.275782753631116
_cell_angle_alpha    88.79220736031418
_cell_angle_beta     90.0
_cell_angle_gamma    90.0

_space_group_name_H-M_alt    "P 1"
_space_group_IT_number       1

loop_
  _space_group_symop_operation_xyz
  'x, y, z'

loop_
  _atom_site_type_symbol
  _atom_site_label
  _atom_site_symmetry_multiplicity
  _atom_site_fract_x
  _atom_site_fract_y
  _atom_site_fract_z
  _atom_site_occupancy
  Na  Na1       1.0  0.3524307902599626  0.516741113017098  0.8979134142356825  1.0000
  Na  Na2       1.0  0.5698005875064729  0.662112937453794  0.549970202466409  1.0000
  Na  Na3       1.0  0.7944673649323775  0.6322869516223906  0.1404164701585723  1.0000
  Na  Na4       1.0  0.9704999774030211  0.8455644060550352  0.30864700871904893  1.0000
  C   C1        1.0  0.17630160234524303  0.9447158053265599  0.5706827242411603  1.0000
  C   C2        1.0  0.784471079267776  0.9860873787145941  0.9471409954129016  1.0000
  C   C3        1.0  0.7158948705262294  0.5904829285246594  0.43207616909789553  1.0000
  C   C4        1.0  0.4693366253791622  0.27648886308611  0.07824854002594202  1.0000
  C   C5        1.0  0.4273408256529003  0.18579934322039726  0.7580397983646607  1.0000
  C   C6        1.0  0.8071122570180722  0.8401520645267722  0.7706049603709854  1.0000
  C   C7        1.0  0.4748621797238868  0.5154873906904754  0.32401693118479813  1.0000
  C   C8        1.0  0.27582805271571376  0.9833643545160226  0.17582858221559433  1.0000
  N   N1        1.0  0.30286362276317413  0.10414684794612894  0.5244190238658347  1.0000
  N   N2        1.0  0.5718216116312549  0.9165111958869678  0.9310457982744832  1.0000
  N   N3        1.0  0.6954052150517899  0.7649554923800429  0.38412012042872706  1.0000
  N   N4        1.0  0.2777100717521461  0.15294505482255194  0.10106893102764149  1.0000
  O   O1        1.0  0.0656785745636084  0.7749116833220816  0.6118769681251649  1.0000
  O   O2        1.0  0.017099520966173953  0.9639175778034614  0.9637121316201371  1.0000
  O   O3        1.0  0.817556191230238  0.4073976367384322  0.4727705167894157  1.0000
  O   O4        1.0  0.6445049958564035  0.3740320085480979  0.05394424098734939  1.0000
  O   O5        1.0  0.5075903379093372  0.21146156929193394  0.6981259626692383  1.0000
  O   O6        1.0  0.7464161938039646  0.622649453013096  0.8109384271177867  1.0000
  O   O7        1.0  0.27145847649925603  0.4451234508210185  0.3395151675125036  1.0000
  O   O8        1.0  0.07272948769646503  0.02951717796976869  0.20485480657630897  1.0000
  O   O9        1.0  0.3181168268208907  0.31859202726146396  0.7985760904305885  1.0000
  O   O10       1.0  0.9475583905465351  0.9871756138758948  0.7344422718508464  1.0000
  O   O11       1.0  0.6496752889703613  0.49645868680650757  0.28375772798935167  1.0000
  O   O12       1.0  0.4304563937083277  0.6915526910348205  0.18535936626977495  1.0000
data_image20
_chemical_formula_structural       Na4C8N4O12
_chemical_formula_sum              "Na4 C8 N4 O12"
_cell_length_a       5.423166
_cell_length_b       3.6248270000000002
_cell_length_c       20.275782753631116
_cell_angle_alpha    88.79220736031418
_cell_angle_beta     90.0
_cell_angle_gamma    90.0

_space_group_name_H-M_alt    "P 1"
_space_group_IT_number       1

loop_
  _space_group_symop_operation_xyz
  'x, y, z'

loop_
  _atom_site_type_symbol
  _atom_site_label
  _atom_site_symmetry_multiplicity
  _atom_site_fract_x
  _atom_site_fract_y
  _atom_site_fract_z
  _atom_site_occupancy
  Na  Na1       1.0  0.22366926730813957  0.45088748801959244  0.921592419588125  1.0000
  Na  Na2       1.0  0.5994100738682342  0.6882710125363978  0.5429268238014807  1.0000
  Na  Na3       1.0  0.8272216797439238  0.5437897731572335  0.14240359407942496  1.0000
  Na  Na4       1.0  0.9823303157939457  0.9550380563872083  0.3134355942819404  1.0000
  C   C1        1.0  0.1224568931957474  0.9117696723040358  0.5854945308376809  1.0000
  C   C2        1.0  0.6737344164065795  0.052623162097254705  0.915441516791655  1.0000
  C   C3        1.0  0.8390151012231337  0.4892857001024966  0.42760183098009386  1.0000
  C   C4        1.0  0.43946855634471294  0.1719518803854001  0.06521617724687002  1.0000
  C   C5        1.0  0.48547787331255504  0.45412931079285657  0.7409904190041804  1.0000
  C   C6        1.0  0.9614824472793155  0.8278559148276275  0.7603938454500271  1.0000
  C   C7        1.0  0.4989200161538046  0.46710716650135464  0.34972441262351217  1.0000
  C   C8        1.0  0.244023866883037  0.9642633010038039  0.17434880381365114  1.0000
  N   N1        1.0  0.33028128240927634  0.040715310352808176  0.5831927568111646  1.0000
  N   N2        1.0  0.4717652383928095  0.9774012485079377  0.8951516540614943  1.0000
  N   N3        1.0  0.6288012601041217  0.6336967871394349  0.41706429242355814  1.0000
  N   N4        1.0  0.25146966721134034  0.048663154552966104  0.09707350736371531  1.0000
  O   O1        1.0  0.9256951058854807  0.8192433010269742  0.5818207531196387  1.0000
  O   O2        1.0  0.8979608185912855  0.9865530419855995  0.9350868011941065  1.0000
  O   O3        1.0  0.975163593901547  0.3362380035847819  0.47042725621148673  1.0000
  O   O4        1.0  0.6074991283709492  0.3076333415285235  0.04875959887289269  1.0000
  O   O5        1.0  0.610765091809338  0.47242079485700605  0.6958701319522842  1.0000
  O   O6        1.0  0.9394312049987315  0.701135316491633  0.8115929168889853  1.0000
  O   O7        1.0  0.250953109914669  0.49934379070564283  0.3578021684162773  1.0000
  O   O8        1.0  0.050007973501322134  0.14927877672694181  0.19362290857267692  1.0000
  O   O9        1.0  0.3770203054639846  0.3143858796649348  0.7945282313120532  1.0000
  O   O10       1.0  0.9820682748411463  0.9541806266855056  0.7035500585791757  1.0000
  O   O11       1.0  0.6016620532034006  0.23969099469759472  0.3067551614342608  1.0000
  O   O12       1.0  0.39537926969081255  0.7673512898453942  0.20776249129245095  1.0000
data_image21
_chemical_formula_structural       Na4C8N4O12
_chemical_formula_sum              "Na4 C8 N4 O12"
_cell_length_a       5.423166
_cell_length_b       3.6248270000000002
_cell_length_c       20.275782753631116
_cell_angle_alpha    88.79220736031418
_cell_angle_beta     90.0
_cell_angle_gamma    90.0

_space_group_name_H-M_alt    "P 1"
_space_group_IT_number       1

loop_
  _space_group_symop_operation_xyz
  'x, y, z'

loop_
  _atom_site_type_symbol
  _atom_site_label
  _atom_site_symmetry_multiplicity
  _atom_site_fract_x
  _atom_site_fract_y
  _atom_site_fract_z
  _atom_site_occupancy
  Na  Na1       1.0  0.9583945458010914  0.40107917791067094  0.9197686322549752  1.0000
  Na  Na2       1.0  0.6320573899841897  0.444856531474654  0.5567933158629562  1.0000
  Na  Na3       1.0  0.6564927637840484  0.6385273937074234  0.1845904471709875  1.0000
  Na  Na4       1.0  0.8694414273892055  0.059168933477012034  0.30817077462864223  1.0000
  C   C1        1.0  0.16009509237166025  0.979258938909057  0.5819070472684704  1.0000
  C   C2        1.0  0.5336166500113295  0.9686065647994222  0.9125811751009921  1.0000
  C   C3        1.0  0.029486585951601363  0.1570554905477654  0.4443231393606169  1.0000
  C   C4        1.0  0.5144265642460215  0.21641484424109558  0.07996986232210992  1.0000
  C   C5        1.0  0.519831418965885  0.46080192891021765  0.7203403491292906  1.0000
  C   C6        1.0  0.022158604987905194  0.7939289382810771  0.7678486035562117  1.0000
  C   C7        1.0  0.4624796460372097  0.5917173424477756  0.3469338218842882  1.0000
  C   C8        1.0  0.23296030676394563  0.08183829554450006  0.17429437887722196  1.0000
  N   N1        1.0  0.3034630506881017  0.19293250402402307  0.5612512520227495  1.0000
  N   N2        1.0  0.328329026931095  0.13215426444496547  0.9186780561639082  1.0000
  N   N3        1.0  0.8230325282805915  0.3224209952061683  0.43748887573040957  1.0000
  N   N4        1.0  0.30502470390022207  0.2063151477323919  0.10325893073272935  1.0000
  O   O1        1.0  0.008143083482224313  0.7654833382236501  0.6037238113516006  1.0000
  O   O2        1.0  0.7470446749737462  0.8768941594246955  0.8933006282109006  1.0000
  O   O3        1.0  0.23105039787812753  0.9184266908466816  0.4541798994419264  1.0000
  O   O4        1.0  0.6645625672908502  0.2997681624237154  0.039531636243630056  1.0000
  O   O5        1.0  0.5398815798145942  0.6648576117822713  0.6726044778505745  1.0000
  O   O6        1.0  0.9723604139356096  0.5478449150456952  0.8027575668208948  1.0000
  O   O7        1.0  0.2562457953414709  0.5345320057019576  0.3330249253646697  1.0000
  O   O8        1.0  0.02694388692409322  0.9554027320970749  0.19516788056588671  1.0000
  O   O9        1.0  0.5524671238517125  0.28183468442339454  0.7654494228033711  1.0000
  O   O10       1.0  0.08554207265412295  0.020189829927436218  0.727738847734568  1.0000
  O   O11       1.0  0.6294805717613332  0.62450861055283  0.3053076249656243  1.0000
  O   O12       1.0  0.4171063275029866  0.12740894623602173  0.21260767157568936  1.0000
data_image22
_chemical_formula_structural       Na4C8N4O12
_chemical_formula_sum              "Na4 C8 N4 O12"
_cell_length_a       5.423166
_cell_length_b       3.6248270000000002
_cell_length_c       20.275782753631116
_cell_angle_alpha    88.79220736031418
_cell_angle_beta     90.0
_cell_angle_gamma    90.0

_space_group_name_H-M_alt    "P 1"
_space_group_IT_number       1

loop_
  _space_group_symop_operation_xyz
  'x, y, z'

loop_
  _atom_site_type_symbol
  _atom_site_label
  _atom_site_symmetry_multiplicity
  _atom_site_fract_x
  _atom_site_fract_y
  _atom_site_fract_z
  _atom_site_occupancy
  Na  Na1       1.0  0.7686385584232327  0.4096322068907413  0.9711129148297786  1.0000
  Na  Na2       1.0  0.6690076633137387  0.39111478291266644  0.515909491851945  1.0000
  Na  Na3       1.0  0.6638577412235375  0.7347384559585092  0.17269627064364065  1.0000
  Na  Na4       1.0  0.9263757042354632  0.0016595442098652922  0.2948793348022823  1.0000
  C   C1        1.0  0.2062452942901888  0.8999246844950403  0.5979331646573419  1.0000
  C   C2        1.0  0.3647054728401533  0.12456992695948899  0.9443740877357425  1.0000
  C   C3        1.0  0.2017736847603009  0.011358236821477316  0.4306018706867314  1.0000
  C   C4        1.0  0.5464664128455636  0.34648039201349556  0.09046706766780845  1.0000
  C   C5        1.0  0.5794864436693301  0.20720822615683576  0.6993332727529157  1.0000
  C   C6        1.0  0.9798389517085542  0.8890904277096724  0.7913722995269376  1.0000
  C   C7        1.0  0.4099962546677686  0.5710844486389584  0.3094624717899241  1.0000
  C   C8        1.0  0.2560746600435997  0.2701886773489792  0.15958442422800925  1.0000
  N   N1        1.0  0.3263192724117275  0.14992228546267428  0.5751893286249734  1.0000
  N   N2        1.0  0.17978960008393297  0.33676848381526836  0.9533279454524298  1.0000
  N   N3        1.0  0.9801563106841203  0.08623241644679555  0.4372374386416462  1.0000
  N   N4        1.0  0.299997439825995  0.2748860471670591  0.09105485768033787  1.0000
  O   O1        1.0  0.08260086730271765  0.691965432831409  0.6262621015615275  1.0000
  O   O2        1.0  0.5598002412478225  0.9774393394228347  0.9149442402026792  1.0000
  O   O3        1.0  0.38644579491357867  0.8579204912719758  0.4374589929043866  1.0000
  O   O4        1.0  0.7383805123151568  0.26406224564839276  0.0660511129210714  1.0000
  O   O5        1.0  0.6395026832550667  0.4507665090572801  0.6548665189323207  1.0000
  O   O6        1.0  0.9410134394625616  0.7424392654390478  0.8393957785477639  1.0000
  O   O7        1.0  0.2089561848035743  0.5692302848746312  0.2911465136532846  1.0000
  O   O8        1.0  0.05458831062362801  0.19171345362311518  0.18601999133941968  1.0000
  O   O9        1.0  0.5091022072002276  0.04395315863458649  0.7430777930977366  1.0000
  O   O10       1.0  0.9725341367661056  0.10224388338595657  0.7459872430701521  1.0000
  O   O11       1.0  0.629531598096063  0.48759163479366135  0.3048580027430718  1.0000
  O   O12       1.0  0.46135588736006494  0.19961546829345922  0.18974592632462828  1.0000
data_image23
_chemical_formula_structural       Na4C8N4O12
_chemical_formula_sum              "Na4 C8 N4 O12"
_cell_length_a       5.423166
_cell_length_b       3.6248270000000002
_cell_length_c       20.275782753631116
_cell_angle_alpha    88.79220736031418
_cell_angle_beta     90.0
_cell_angle_gamma    90.0

_space_group_name_H-M_alt    "P 1"
_space_group_IT_number       1

loop_
  _space_group_symop_operation_xyz
  'x, y, z'

loop_
  _atom_site_type_symbol
  _atom_site_label
  _atom_site_symmetry_multiplicity
  _atom_site_fract_x
  _atom_site_fract_y
  _atom_site_fract_z
  _atom_site_occupancy
  Na  Na1       1.0  0.672448476352477  0.7789790818965855  0.9357190266436417  1.0000
  Na  Na2       1.0  0.6926061473691674  0.3814107848431141  0.5089409721826272  1.0000
  Na  Na3       1.0  0.8819151795774416  0.5725708349974783  0.16044981655046917  1.0000
  Na  Na4       1.0  0.9565232849137194  0.9768357970461942  0.3089614812639849  1.0000
  C   C1        1.0  0.25043304794390997  0.8279268197023573  0.5848731625341842  1.0000
  C   C2        1.0  0.18816520613052234  0.2319299322386683  0.9450173550212794  1.0000
  C   C3        1.0  0.16055537150045285  0.7679033500563279  0.4445170921614244  1.0000
  C   C4        1.0  0.5103090465946969  0.315773233082445  0.09375638120466744  1.0000
  C   C5        1.0  0.6063040335258006  0.17866811967478058  0.677302939337916  1.0000
  C   C6        1.0  0.9644965110213101  0.05617155271579636  0.8107458395371635  1.0000
  C   C7        1.0  0.44750120023407075  0.48641982602705813  0.2756366164810042  1.0000
  C   C8        1.0  0.26508802792618225  0.15168460206282797  0.1695677421888061  1.0000
  N   N1        1.0  0.3716450260322919  0.9109488643798596  0.5361638104457447  1.0000
  N   N2        1.0  0.031118881635561868  0.26497461481098217  0.9864873434033753  1.0000
  N   N3        1.0  0.9674012345161018  0.9268977862234885  0.4691808188086941  1.0000
  N   N4        1.0  0.24229503932358543  0.29707353138692416  0.1063541170299313  1.0000
  O   O1        1.0  0.1165149629592881  0.817766579465903  0.628632658896443  1.0000
  O   O2        1.0  0.40183774778520764  0.1538682545451744  0.9225865821498139  1.0000
  O   O3        1.0  0.31740721021663343  0.5912483013045056  0.42557000719033894  1.0000
  O   O4        1.0  0.6762023023485811  0.49544319727772224  0.07099015373793971  1.0000
  O   O5        1.0  0.7578977120861979  0.3089277995845845  0.6365954199198686  1.0000
  O   O6        1.0  0.9660333127002029  0.828231733741342  0.8574370957419455  1.0000
  O   O7        1.0  0.22850086624424262  0.5797935509226674  0.28430662495619285  1.0000
  O   O8        1.0  0.08240661412628669  0.05451319877502011  0.19825341532351887  1.0000
  O   O9        1.0  0.4819174661238269  0.9664437200676478  0.7067176717447591  1.0000
  O   O10       1.0  0.028735713992571243  0.3529010996211411  0.7822760780669016  1.0000
  O   O11       1.0  0.6544755361854807  0.5444573546501833  0.31209007598664146  1.0000
  O   O12       1.0  0.4851821031691471  0.2597874581190567  0.21327649080383612  1.0000
data_image24
_chemical_formula_structural       Na4C8N4O12
_chemical_formula_sum              "Na4 C8 N4 O12"
_cell_length_a       5.423166
_cell_length_b       3.6248270000000002
_cell_length_c       20.275782753631116
_cell_angle_alpha    88.79220736031418
_cell_angle_beta     90.0
_cell_angle_gamma    90.0

_space_group_name_H-M_alt    "P 1"
_space_group_IT_number       1

loop_
  _space_group_symop_operation_xyz
  'x, y, z'

loop_
  _atom_site_type_symbol
  _atom_site_label
  _atom_site_symmetry_multiplicity
  _atom_site_fract_x
  _atom_site_fract_y
  _atom_site_fract_z
  _atom_site_occupancy
  Na  Na1       1.0  0.6064047053963889  0.7991776454363431  0.9284979636827582  1.0000
  Na  Na2       1.0  0.6427510967431923  0.31367647716350855  0.5075150836845811  1.0000
  Na  Na3       1.0  0.924449970253451  0.4202123933265941  0.20375765037966379  1.0000
  Na  Na4       1.0  0.8949871892576607  0.9541222985176199  0.3498710229753154  1.0000
  C   C1        1.0  0.3166352034639149  0.7818174699623909  0.599151370595725  1.0000
  C   C2        1.0  0.9997712161166845  0.3546008732055521  0.9264248626426501  1.0000
  C   C3        1.0  0.11657456917968978  0.7183633408910216  0.4514180369502451  1.0000
  C   C4        1.0  0.45456293962522065  0.5749147788337767  0.08856722363284748  1.0000
  C   C5        1.0  0.6954244366570447  0.2628751035058081  0.6581203761727726  1.0000
  C   C6        1.0  0.042804110428860905  0.22895782458070382  0.7734897330835669  1.0000
  C   C7        1.0  0.43995737836326887  0.32471048942566105  0.32059175794291284  1.0000
  C   C8        1.0  0.40868707496755974  0.07171944537365182  0.175780004773333  1.0000
  N   N1        1.0  0.3730365707176466  0.9842151278865123  0.5491873607938679  1.0000
  N   N2        1.0  0.8083112881378296  0.3062450511033735  0.9540949655897176  1.0000
  N   N3        1.0  0.8975986687252893  0.7738204803343796  0.46802964152410803  1.0000
  N   N4        1.0  0.3636041616568404  0.3530259769898585  0.13021285757596587  1.0000
  O   O1        1.0  0.24648310505283627  0.6248772579189692  0.6465562339717903  1.0000
  O   O2        1.0  0.20568371848919192  0.4841313233937098  0.9109553698519804  1.0000
  O   O3        1.0  0.3307800552656244  0.6442677085010696  0.4453236940938499  1.0000
  O   O4        1.0  0.4953253848830162  0.8309260517726575  0.049546060166725095  1.0000
  O   O5        1.0  0.7603439087065125  0.41033323997159976  0.6073708300142582  1.0000
  O   O6        1.0  0.882387144734125  0.11599504172524444  0.8122214649100001  1.0000
  O   O7        1.0  0.23442033931282555  0.3929750693416907  0.31685957412935584  1.0000
  O   O8        1.0  0.20316231100956883  0.8946047583630208  0.1944454915990142  1.0000
  O   O9        1.0  0.645318618885222  0.049515421904573254  0.7024207153087352  1.0000
  O   O10       1.0  0.2010606066798346  0.204076074154707  0.7361636219403973  1.0000
  O   O11       1.0  0.6469473373902145  0.4070384657543738  0.32775955584792876  1.0000
  O   O12       1.0  0.6288947417168026  0.9696741045438255  0.18363864009300257  1.0000
data_image25
_chemical_formula_structural       Na4C8N4O12
_chemical_formula_sum              "Na4 C8 N4 O12"
_cell_length_a       5.423166
_cell_length_b       3.6248270000000002
_cell_length_c       20.275782753631116
_cell_angle_alpha    88.79220736031418
_cell_angle_beta     90.0
_cell_angle_gamma    90.0

_space_group_name_H-M_alt    "P 1"
_space_group_IT_number       1

loop_
  _space_group_symop_operation_xyz
  'x, y, z'

loop_
  _atom_site_type_symbol
  _atom_site_label
  _atom_site_symmetry_multiplicity
  _atom_site_fract_x
  _atom_site_fract_y
  _atom_site_fract_z
  _atom_site_occupancy
  Na  Na1       1.0  0.5136802926119732  0.7827954223857327  0.8625396676289763  1.0000
  Na  Na2       1.0  0.6078889555185805  0.39426741183362424  0.5175387756608891  1.0000
  Na  Na3       1.0  0.9137944959198714  0.5677947244616433  0.19966373931723028  1.0000
  Na  Na4       1.0  0.9332161034514694  0.8777582122857281  0.36226239308887553  1.0000
  C   C1        1.0  0.286665011227192  0.836076949698931  0.591425373382132  1.0000
  C   C2        1.0  0.03612152733910412  0.2695813475692025  0.9420419823907581  1.0000
  C   C3        1.0  0.1442694476562869  0.7563768833614948  0.44800631308153926  1.0000
  C   C4        1.0  0.3981758312051278  0.5652843503720681  0.07847090857398632  1.0000
  C   C5        1.0  0.7948373954464867  0.18713098763542124  0.6672452414857273  1.0000
  C   C6        1.0  0.9841321555931132  0.9279032616419872  0.8032687525124249  1.0000
  C   C7        1.0  0.4879801295726504  0.37057828464937786  0.32118216782578396  1.0000
  C   C8        1.0  0.455037751196121  0.23121524140612615  0.17683395518199857  1.0000
  N   N1        1.0  0.31677756790086636  0.9794861447611021  0.5385217359060948  1.0000
  N   N2        1.0  0.8378473357018408  0.22821002559161896  0.9648727227965133  1.0000
  N   N3        1.0  0.9325590330657713  0.7159113380903902  0.46523969391082215  1.0000
  N   N4        1.0  0.5253904186712179  0.4591548838841988  0.12416420853383099  1.0000
  O   O1        1.0  0.2866223478352482  0.6062405954250069  0.6312539674258446  1.0000
  O   O2        1.0  0.23871514053387827  0.4128979173721461  0.9250144577261772  1.0000
  O   O3        1.0  0.34864201905957004  0.7903970029749304  0.42479996793492913  1.0000
  O   O4        1.0  0.2243897435378758  0.6601626612650815  0.04620405499691759  1.0000
  O   O5        1.0  0.9034843035974947  0.4125067583273039  0.6321907084912571  1.0000
  O   O6        1.0  0.8050385641945135  0.10000408834706964  0.8163842828804249  1.0000
  O   O7        1.0  0.27800169016250437  0.2850838999674072  0.3265655299782624  1.0000
  O   O8        1.0  0.23315609516960523  0.18246012574056994  0.19022972674489197  1.0000
  O   O9        1.0  0.6445861466804162  0.06461801492499242  0.6998851963987001  1.0000
  O   O10       1.0  0.1828029746756643  0.778350486800704  0.7881452487054834  1.0000
  O   O11       1.0  0.6226053325464702  0.638955107598782  0.3015958006561726  1.0000
  O   O12       1.0  0.6244574166200655  0.0636820104524074  0.20128283378985765  1.0000
data_image26
_chemical_formula_structural       Na4C8N4O12
_chemical_formula_sum              "Na4 C8 N4 O12"
_cell_length_a       5.423166
_cell_length_b       3.6248270000000002
_cell_length_c       20.275782753631116
_cell_angle_alpha    88.79220736031418
_cell_angle_beta     90.0
_cell_angle_gamma    90.0

_space_group_name_H-M_alt    "P 1"
_space_group_IT_number       1

loop_
  _space_group_symop_operation_xyz
  'x, y, z'

loop_
  _atom_site_type_symbol
  _atom_site_label
  _atom_site_symmetry_multiplicity
  _atom_site_fract_x
  _atom_site_fract_y
  _atom_site_fract_z
  _atom_site_occupancy
  Na  Na1       1.0  0.4663472436806624  0.6298127985329891  0.9184397800064101  1.0000
  Na  Na2       1.0  0.7638337741427831  0.15563571718395708  0.4908456230531387  1.0000
  Na  Na3       1.0  0.9645204239654588  0.8390568625976641  0.14855145886048252  1.0000
  Na  Na4       1.0  0.8285434309732721  0.07905722846232122  0.37400955548900616  1.0000
  C   C1        1.0  0.24635488529715902  0.05767324710591182  0.6052944459560997  1.0000
  C   C2        1.0  0.9497727946179233  0.23455881552492863  0.9686606605144714  1.0000
  C   C3        1.0  0.3177325164933795  0.6020549230458372  0.4407481139782247  1.0000
  C   C4        1.0  0.47115055457135147  0.7244845594598381  0.05477334065663156  1.0000
  C   C5        1.0  0.7299998624450162  0.1133186207390473  0.6727544577774923  1.0000
  C   C6        1.0  0.9368571222757233  0.7418421056986657  0.8241596955496325  1.0000
  C   C7        1.0  0.40603414929854376  0.3607789305700228  0.30815354980026965  1.0000
  C   C8        1.0  0.4831952946170477  0.3355632656635936  0.16126564315029893  1.0000
  N   N1        1.0  0.14055534121633417  0.21984623637641598  0.5608713998674307  1.0000
  N   N2        1.0  0.8011523744933051  0.14990649630979935  0.011043909194939472  1.0000
  N   N3        1.0  0.14395857163734993  0.4984747141934519  0.4113627298656644  1.0000
  N   N4        1.0  0.5357899266274135  0.6222589766836462  0.11581896057432173  1.0000
  O   O1        1.0  0.2660739004195884  0.8843155675927744  0.6540763717990897  1.0000
  O   O2        1.0  0.08324885987339128  0.3579769102126825  0.9238532490247059  1.0000
  O   O3        1.0  0.5065095221751525  0.7083239406919499  0.47005594111917987  1.0000
  O   O4        1.0  0.40916399956449045  0.8564882284851996  0.004065820866380861  1.0000
  O   O5        1.0  0.7164882562776475  0.9271493971489582  0.624298277267454  1.0000
  O   O6        1.0  0.7551368137447618  0.9255879025297664  0.8420691165819415  1.0000
  O   O7        1.0  0.24354945162657055  0.16020720959333798  0.2892473551777558  1.0000
  O   O8        1.0  0.24661648439869377  0.2767069890983218  0.1677489400176421  1.0000
  O   O9        1.0  0.7287293462019634  0.36106778941343953  0.711226889926233  1.0000
  O   O10       1.0  0.10000926304373303  0.6038800837805836  0.78711762603589  1.0000
  O   O11       1.0  0.5951886084637459  0.49766343699067805  0.3274079644197564  1.0000
  O   O12       1.0  0.6896621842860925  0.2040028338374149  0.18680652172393508  1.0000
data_image27
_chemical_formula_structural       Na4C8N4O12
_chemical_formula_sum              "Na4 C8 N4 O12"
_cell_length_a       5.423166
_cell_length_b       3.6248270000000002
_cell_length_c       20.275782753631116
_cell_angle_alpha    88.79220736031418
_cell_angle_beta     90.0
_cell_angle_gamma    90.0

_space_group_name_H-M_alt    "P 1"
_space_group_IT_number       1

loop_
  _space_group_symop_operation_xyz
  'x, y, z'

loop_
  _atom_site_type_symbol
  _atom_site_label
  _atom_site_symmetry_multiplicity
  _atom_site_fract_x
  _atom_site_fract_y
  _atom_site_fract_z
  _atom_site_occupancy
  Na  Na1       1.0  0.43630026282338563  0.29313986956225446  0.901299024477172  1.0000
  Na  Na2       1.0  0.8668961320709028  0.8938258253616592  0.5142718948664518  1.0000
  Na  Na3       1.0  0.988418436100519  0.8017677181345193  0.13901795540088743  1.0000
  Na  Na4       1.0  0.7822239866787742  0.7980641511121023  0.3685054036800056  1.0000
  C   C1        1.0  0.1872494798007055  0.3184930524045766  0.5826890373219331  1.0000
  C   C2        1.0  0.8803146084746962  0.37893664708587604  0.9809971505593067  1.0000
  C   C3        1.0  0.4392279272644539  0.6555487473711108  0.4515604295477363  1.0000
  C   C4        1.0  0.4287263642579433  0.8180324749606298  0.0676123416509945  1.0000
  C   C5        1.0  0.7643243040647427  0.1880179853823769  0.6694080135054373  1.0000
  C   C6        1.0  0.9968353620059545  0.7938373235528572  0.7990592864884402  1.0000
  C   C7        1.0  0.2726642053985624  0.20873389553194613  0.3086485895964025  1.0000
  C   C8        1.0  0.566924383333532  0.4046369938061938  0.16750291905675177  1.0000
  N   N1        1.0  0.11666029052087332  0.5817225945439359  0.5481410583585626  1.0000
  N   N2        1.0  0.8336940337878702  0.18435518011121843  0.03011181020103315  1.0000
  N   N3        1.0  0.27403390028635966  0.8502564035648781  0.41308686745577294  1.0000
  N   N4        1.0  0.5856927238669509  0.6518093067485669  0.0982472667878488  1.0000
  O   O1        1.0  0.19828532206991606  0.13780793974679884  0.6334779191951121  1.0000
  O   O2        1.0  0.8992301402118928  0.5395234435906824  0.931036611485425  1.0000
  O   O3        1.0  0.5967283451371077  0.479283098747307  0.4819489965654381  1.0000
  O   O4        1.0  0.29056524500132797  0.9235452038002006  0.02263103916194997  1.0000
  O   O5        1.0  0.6561821218679458  0.9807825816345187  0.6398819664540156  1.0000
  O   O6        1.0  0.7782159342298791  0.7573006781024919  0.7923462165566426  1.0000
  O   O7        1.0  0.06417219171433212  0.09675576567841451  0.2946283620218688  1.0000
  O   O8        1.0  0.35103702217472654  0.4309809771095487  0.1796723741046862  1.0000
  O   O9        1.0  0.825262189671446  0.3597916655676916  0.7154010703299076  1.0000
  O   O10       1.0  0.20311254697038716  0.7682255415524669  0.8198838959231809  1.0000
  O   O11       1.0  0.48031460353327626  0.19037850620628172  0.3234150848707687  1.0000
  O   O12       1.0  0.7640590622942979  0.29046783367147544  0.18093525268603364  1.0000
data_image28
_chemical_formula_structural       Na4C8N4O12
_chemical_formula_sum              "Na4 C8 N4 O12"
_cell_length_a       5.423166
_cell_length_b       3.6248270000000002
_cell_length_c       20.275782753631116
_cell_angle_alpha    88.79220736031418
_cell_angle_beta     90.0
_cell_angle_gamma    90.0

_space_group_name_H-M_alt    "P 1"
_space_group_IT_number       1

loop_
  _space_group_symop_operation_xyz
  'x, y, z'

loop_
  _atom_site_type_symbol
  _atom_site_label
  _atom_site_symmetry_multiplicity
  _atom_site_fract_x
  _atom_site_fract_y
  _atom_site_fract_z
  _atom_site_occupancy
  Na  Na1       1.0  0.27919922597298363  0.048730175667221376  0.9238522112226936  1.0000
  Na  Na2       1.0  0.7430410640019092  0.8066930864963779  0.5024793375114005  1.0000
  Na  Na3       1.0  0.9372757687921708  0.9933702959498659  0.1326328768427665  1.0000
  Na  Na4       1.0  0.7294454282503939  0.7353888670588293  0.3376165461525471  1.0000
  C   C1        1.0  0.32507426203901163  0.6170775390491587  0.6279819028050119  1.0000
  C   C2        1.0  0.002998500592281461  0.4356452508373059  0.9925654542811181  1.0000
  C   C3        1.0  0.34379271938336586  0.46168305389559194  0.43423863669249735  1.0000
  C   C4        1.0  0.5231846653826173  0.5424604749282729  0.04440103425671038  1.0000
  C   C5        1.0  0.8227538597677883  0.09307482179371296  0.6623048494401458  1.0000
  C   C6        1.0  0.9958941414082009  0.09282919633855205  0.8143042910454242  1.0000
  C   C7        1.0  0.24048401582607584  0.16983224951982887  0.32162697591901723  1.0000
  C   C8        1.0  0.4410845252847657  0.41964870854310377  0.15744346032793993  1.0000
  N   N1        1.0  0.2618734729024324  0.6126380863052454  0.5678814796434021  1.0000
  N   N2        1.0  0.8455085247585223  0.34364592977333486  0.030257196408391085  1.0000
  N   N3        1.0  0.16144269315155801  0.4437615418590757  0.40771911534660205  1.0000
  N   N4        1.0  0.4749745043665179  0.660600980944811  0.10273943061728566  1.0000
  O   O1        1.0  0.3299488149094866  0.6250402920516944  0.6887104298323066  1.0000
  O   O2        1.0  0.08737339917508702  0.5829178436148836  0.943093244184564  1.0000
  O   O3        1.0  0.5568757416578405  0.37156270664528535  0.44667236744809663  1.0000
  O   O4        1.0  0.4868269886580862  0.5180811063411281  0.9845355286261059  1.0000
  O   O5        1.0  0.836431464005087  0.971912101552963  0.6106785617382313  1.0000
  O   O6        1.0  0.8318920302044635  0.19524456174048122  0.8465262020464134  1.0000
  O   O7        1.0  0.08830168376028537  0.20084216168137825  0.2807310267413125  1.0000
  O   O8        1.0  0.2080083312661234  0.3427113603958269  0.17739499367877917  1.0000
  O   O9        1.0  0.8713267450742184  0.12258690838744446  0.7227627869951103  1.0000
  O   O10       1.0  0.20880991677868455  0.026696985571130472  0.8046309293776588  1.0000
  O   O11       1.0  0.47943421822875304  0.13166136228566364  0.31673761707878606  1.0000
  O   O12       1.0  0.6140511356717661  0.289995410480961  0.1944772452098014  1.0000
data_image29
_chemical_formula_structural       Na4C8N4O12
_chemical_formula_sum              "Na4 C8 N4 O12"
_cell_length_a       5.423166
_cell_length_b       3.6248270000000002
_cell_length_c       20.275782753631116
_cell_angle_alpha    88.79220736031418
_cell_angle_beta     90.0
_cell_angle_gamma    90.0

_space_group_name_H-M_alt    "P 1"
_space_group_IT_number       1

loop_
  _space_group_symop_operation_xyz
  'x, y, z'

loop_
  _atom_site_type_symbol
  _atom_site_label
  _atom_site_symmetry_multiplicity
  _atom_site_fract_x
  _atom_site_fract_y
  _atom_site_fract_z
  _atom_site_occupancy
  Na  Na1       1.0  0.4476475282714514  0.9642009367849742  0.9119794036294092  1.0000
  Na  Na2       1.0  0.7743547947709701  0.8028120513376682  0.511300312187835  1.0000
  Na  Na3       1.0  0.7805553245174797  0.9352904792610411  0.15093621298040724  1.0000
  Na  Na4       1.0  0.8731419116017911  0.48627911274656377  0.32911223453519495  1.0000
  C   C1        1.0  0.3505045285917094  0.6862468738343879  0.6152173351565771  1.0000
  C   C2        1.0  0.08662825644577521  0.4276826313474571  0.004831201401969576  1.0000
  C   C3        1.0  0.349726569027228  0.33070186038282867  0.44374451689397987  1.0000
  C   C4        1.0  0.5140831675250495  0.5143916682512939  0.02717200970535093  1.0000
  C   C5        1.0  0.8562649889308875  0.23812189679318974  0.6478161201929794  1.0000
  C   C6        1.0  0.8902401884761554  0.15247353174445027  0.8415280937636769  1.0000
  C   C7        1.0  0.2366686409885987  0.17482540122971105  0.3343926470914407  1.0000
  C   C8        1.0  0.3019308226336441  0.545224991471368  0.15946630936997555  1.0000
  N   N1        1.0  0.30486319755981733  0.5057188292836026  0.5657934206154702  1.0000
  N   N2        1.0  0.9959518989764173  0.2629853002136566  0.05360205095997728  1.0000
  N   N3        1.0  0.22364377298657256  0.06483073089691305  0.4131048091718185  1.0000
  N   N4        1.0  0.46631091161395544  0.5568476895581234  0.08107473751261664  1.0000
  O   O1        1.0  0.40695103797024823  0.8155767879439937  0.6729839407778411  1.0000
  O   O2        1.0  0.13387826682798248  0.6424028355439111  0.9590012461256708  1.0000
  O   O3        1.0  0.5824907194566549  0.38137695321463994  0.4311843683373  1.0000
  O   O4        1.0  0.6227468267389638  0.4269999758559424  0.9728142965530752  1.0000
  O   O5        1.0  0.7848171562280364  0.18422302071164287  0.5907899224245392  1.0000
  O   O6        1.0  0.7175918234310616  0.34882252941311687  0.8351911526807302  1.0000
  O   O7        1.0  0.08973638111303849  0.9497796940407844  0.30765253112661695  1.0000
  O   O8        1.0  0.1539453806357567  0.7873833399204755  0.1733784403710611  1.0000
  O   O9        1.0  0.8671453749526408  0.18199099823360076  0.706959381782211  1.0000
  O   O10       1.0  0.04896507127748184  0.9296971653067926  0.8375250529398521  1.0000
  O   O11       1.0  0.380996427189185  0.40912211523483416  0.310306938369348  1.0000
  O   O12       1.0  0.4089179942970814  0.2984333037564222  0.18918212336725332  1.0000
data_image30
_chemical_formula_structural       Na4C8N4O12
_chemical_formula_sum              "Na4 C8 N4 O12"
_cell_length_a       5.423166
_cell_length_b       3.6248270000000002
_cell_length_c       20.275782753631116
_cell_angle_alpha    88.79220736031418
_cell_angle_beta     90.0
_cell_angle_gamma    90.0

_space_group_name_H-M_alt    "P 1"
_space_group_IT_number       1

loop_
  _space_group_symop_operation_xyz
  'x, y, z'

loop_
  _atom_site_type_symbol
  _atom_site_label
  _atom_site_symmetry_multiplicity
  _atom_site_fract_x
  _atom_site_fract_y
  _atom_site_fract_z
  _atom_site_occupancy
  Na  Na1       1.0  0.5112093719073814  0.8780596751590701  0.8852943993920062  1.0000
  Na  Na2       1.0  0.8672811954518467  0.7874150176572037  0.503085063916151  1.0000
  Na  Na3       1.0  0.7547611352709171  0.1002386258483916  0.15984819070375575  1.0000
  Na  Na4       1.0  0.7951424903323722  0.571154115607464  0.36033628955962066  1.0000
  C   C1        1.0  0.29997443274661895  0.6278991535468179  0.6089342612080799  1.0000
  C   C2        1.0  0.14481567471609136  0.47786128844079323  0.0003064094204638934  1.0000
  C   C3        1.0  0.36498492764434376  0.3125775626909242  0.4699720669438465  1.0000
  C   C4        1.0  0.6237669920029594  0.5223963217522958  0.02938871047991031  1.0000
  C   C5        1.0  0.7685466604983342  0.20018934860797066  0.6357461883222345  1.0000
  C   C6        1.0  0.8164078050536946  0.14925704782677074  0.8059005402361084  1.0000
  C   C7        1.0  0.22435724294766468  0.09884879333514016  0.36088992710979634  1.0000
  C   C8        1.0  0.28501802382471375  0.554033671317194  0.17722091208983334  1.0000
  N   N1        1.0  0.3111781218836432  0.49815972279623844  0.5551087066394054  1.0000
  N   N2        1.0  0.1099557822171261  0.3178337854465243  0.05029702961879745  1.0000
  N   N3        1.0  0.22063168086191998  0.18727993374695584  0.4235167344878096  1.0000
  N   N4        1.0  0.6225769800180456  0.7051506833719465  0.07811284254024471  1.0000
  O   O1        1.0  0.30563223639883186  0.6429926791955678  0.6672797167830279  1.0000
  O   O2        1.0  0.17803537695863203  0.6052667652564235  0.9456624151848493  1.0000
  O   O3        1.0  0.5877540100083056  0.4301753533601749  0.4620579395437213  1.0000
  O   O4        1.0  0.646898796394277  0.41761435765189026  0.9724395590961739  1.0000
  O   O5        1.0  0.663268605477677  0.05845026774346107  0.5913495666680828  1.0000
  O   O6        1.0  0.6540330774868808  0.3790110106786937  0.8045426346271444  1.0000
  O   O7        1.0  0.055152050151416436  0.9740259612350631  0.3270821721539041  1.0000
  O   O8        1.0  0.10453246651551518  0.6841852415347164  0.15823976350512386  1.0000
  O   O9        1.0  0.8314541555328352  0.24771505537603078  0.6907521652731489  1.0000
  O   O10       1.0  0.0216664405626521  0.07102602400424377  0.8061641665344046  1.0000
  O   O11       1.0  0.4551965260660656  0.0848945760580879  0.3408125700147624  1.0000
  O   O12       1.0  0.4218641732317277  0.36362749783261283  0.20812027111432865  1.0000
data_image31
_chemical_formula_structural       Na4C8N4O12
_chemical_formula_sum              "Na4 C8 N4 O12"
_cell_length_a       5.423166
_cell_length_b       3.6248270000000002
_cell_length_c       20.275782753631116
_cell_angle_alpha    88.79220736031418
_cell_angle_beta     90.0
_cell_angle_gamma    90.0

_space_group_name_H-M_alt    "P 1"
_space_group_IT_number       1

loop_
  _space_group_symop_operation_xyz
  'x, y, z'

loop_
  _atom_site_type_symbol
  _atom_site_label
  _atom_site_symmetry_multiplicity
  _atom_site_fract_x
  _atom_site_fract_y
  _atom_site_fract_z
  _atom_site_occupancy
  Na  Na1       1.0  0.45405822917253447  0.8238769295672079  0.8774201550730518  1.0000
  Na  Na2       1.0  0.8912869552822993  0.6695320318903709  0.48779325343652197  1.0000
  Na  Na3       1.0  0.6784289486387403  0.2862658389255168  0.14554752794620515  1.0000
  Na  Na4       1.0  0.7578533132036555  0.4258688599752187  0.3513725096518731  1.0000
  C   C1        1.0  0.2569859780034585  0.5242383037713707  0.6163756837094138  1.0000
  C   C2        1.0  0.18269934375740526  0.44768113247191565  0.9827206324367312  1.0000
  C   C3        1.0  0.33516885377157757  0.29365322646140046  0.5055132797394762  1.0000
  C   C4        1.0  0.7074742417005404  0.5049758978335652  0.00955114063030695  1.0000
  C   C5        1.0  0.7759292969098336  0.11141768363947335  0.6281594273224937  1.0000
  C   C6        1.0  0.9735102964051576  0.3941852087750113  0.8042817455723595  1.0000
  C   C7        1.0  0.23629381971515667  0.06175469097278338  0.3897499682974616  1.0000
  C   C8        1.0  0.17203541310728632  0.6505400852893002  0.20222623780007848  1.0000
  N   N1        1.0  0.20168544711097489  0.40407441920976916  0.5618978760236026  1.0000
  N   N2        1.0  0.18435262538289143  0.390394833470605  0.03949814297450693  1.0000
  N   N3        1.0  0.1723496321923541  0.09544444400403274  0.45844660861295683  1.0000
  N   N4        1.0  0.7259107745613673  0.6774129968097258  0.05919160945181834  1.0000
  O   O1        1.0  0.22446678469848974  0.6659219813752182  0.6666835065136801  1.0000
  O   O2        1.0  0.15655616725724691  0.48703856496016495  0.9236455875832758  1.0000
  O   O3        1.0  0.5388992692016727  0.3672636322689916  0.48842982604861  1.0000
  O   O4        1.0  0.6724443815631476  0.37373818490976873  0.9554409498331271  1.0000
  O   O5        1.0  0.8694751393184657  0.9784370427171217  0.5770979387126363  1.0000
  O   O6        1.0  0.7680853979922494  0.40742868100154084  0.8303196778436268  1.0000
  O   O7        1.0  0.00145037882491458  0.04223324498799084  0.3628303603027524  1.0000
  O   O8        1.0  0.08134060280419741  0.9118884657479727  0.17309787432601673  1.0000
  O   O9        1.0  0.7699121526163512  0.2841568455423453  0.6781271526635368  1.0000
  O   O10       1.0  0.16737740851695815  0.29519874120633216  0.7915767613501128  1.0000
  O   O11       1.0  0.42085122692040844  0.9519282082307822  0.3512999305710842  1.0000
  O   O12       1.0  0.36344366070050493  0.47253295734870093  0.19417821331744367  1.0000
data_image32
_chemical_formula_structural       Na4C8N4O12
_chemical_formula_sum              "Na4 C8 N4 O12"
_cell_length_a       5.423166
_cell_length_b       3.6248270000000002
_cell_length_c       20.275782753631116
_cell_angle_alpha    88.79220736031418
_cell_angle_beta     90.0
_cell_angle_gamma    90.0

_space_group_name_H-M_alt    "P 1"
_space_group_IT_number       1

loop_
  _space_group_symop_operation_xyz
  'x, y, z'

loop_
  _atom_site_type_symbol
  _atom_site_label
  _atom_site_symmetry_multiplicity
  _atom_site_fract_x
  _atom_site_fract_y
  _atom_site_fract_z
  _atom_site_occupancy
  Na  Na1       1.0  0.42557909398556903  0.09051670833614445  0.8892301488373208  1.0000
  Na  Na2       1.0  0.8865731612163508  0.7781500806450338  0.4842570418366342  1.0000
  Na  Na3       1.0  0.5719763999759385  0.178063727008271  0.10488157688016551  1.0000
  Na  Na4       1.0  0.7960230440401797  0.32187014297715744  0.3291334839085013  1.0000
  C   C1        1.0  0.41345248607927865  0.5016356253306153  0.6032575609133569  1.0000
  C   C2        1.0  0.1427763791670581  0.18465758567054824  0.02650473974340528  1.0000
  C   C3        1.0  0.37875819439767056  0.172850659318736  0.4955023790694016  1.0000
  C   C4        1.0  0.7062349893888882  0.6550654616350426  0.9834677908267737  1.0000
  C   C5        1.0  0.8777143839391971  0.1978540892296352  0.6139476021774222  1.0000
  C   C6        1.0  0.9359974032633903  0.2786494757932313  0.8199103337186255  1.0000
  C   C7        1.0  0.17192173015053072  0.12306866120384008  0.39144465155996067  1.0000
  C   C8        1.0  0.0826714920681737  0.8244264548593465  0.1990908187404554  1.0000
  N   N1        1.0  0.3764623423684489  0.3500838649713427  0.5532860227503844  1.0000
  N   N2        1.0  0.059098382176239195  0.10011423245233397  0.07833985241990105  1.0000
  N   N3        1.0  0.15372447487912932  0.1868852982841508  0.46496869127598284  1.0000
  N   N4        1.0  0.6217550098920057  0.6595576324826213  0.036644529372832205  1.0000
  O   O1        1.0  0.41524002754934564  0.6435098892947584  0.6547444825856836  1.0000
  O   O2        1.0  0.20849064072970863  0.24120998390228676  0.9716998184384025  1.0000
  O   O3        1.0  0.5141913105400893  0.916003441201223  0.4848433275055671  1.0000
  O   O4        1.0  0.7634756099720759  0.7640007192491578  0.9286415489280065  1.0000
  O   O5        1.0  0.9754208004720177  0.964798114583778  0.5799956003736729  1.0000
  O   O6        1.0  0.7148952181863739  0.3883724923282994  0.8131349735961071  1.0000
  O   O7        1.0  0.06329154838345209  0.8401355383564619  0.3861656931507843  1.0000
  O   O8        1.0  0.9380238479604498  0.8753757194964852  0.2422182686330517  1.0000
  O   O9        1.0  0.8106356328151395  0.3821669496424893  0.6584669041198868  1.0000
  O   O10       1.0  0.145646170779705  0.26957534889304324  0.7934161580941032  1.0000
  O   O11       1.0  0.3414341570182561  0.27814902846715645  0.3450016282797273  1.0000
  O   O12       1.0  0.30351688601411403  0.7158408428757386  0.2044004708874852  1.0000
data_image33
_chemical_formula_structural       Na4C8N4O12
_chemical_formula_sum              "Na4 C8 N4 O12"
_cell_length_a       5.423166
_cell_length_b       3.6248270000000002
_cell_length_c       20.275782753631116
_cell_angle_alpha    88.79220736031418
_cell_angle_beta     90.0
_cell_angle_gamma    90.0

_space_group_name_H-M_alt    "P 1"
_space_group_IT_number       1

loop_
  _space_group_symop_operation_xyz
  'x, y, z'

loop_
  _atom_site_type_symbol
  _atom_site_label
  _atom_site_symmetry_multiplicity
  _atom_site_fract_x
  _atom_site_fract_y
  _atom_site_fract_z
  _atom_site_occupancy
  Na  Na1       1.0  0.3198661828847579  0.40680000996438814  0.9264415956032517  1.0000
  Na  Na2       1.0  0.9646679326683931  0.6697023903383984  0.46705727155896887  1.0000
  Na  Na3       1.0  0.4148149984569031  0.08790030955346739  0.10500658703474466  1.0000
  Na  Na4       1.0  0.7898282485253488  0.1571871417720383  0.277529554612213  1.0000
  C   C1        1.0  0.3869209149595137  0.4772457914845998  0.608340032067806  1.0000
  C   C2        1.0  0.007681745646748284  0.9802889108339197  0.07120038110715798  1.0000
  C   C3        1.0  0.4836239391006125  0.21147127897484708  0.48498509342922774  1.0000
  C   C4        1.0  0.6593725324968998  0.861847933205528  0.9735033672072035  1.0000
  C   C5        1.0  0.9571590773784793  0.9773065428441143  0.6336555856637905  1.0000
  C   C6        1.0  0.9794401875989873  0.4194467496014414  0.7954056781462177  1.0000
  C   C7        1.0  0.27462723281916546  0.26685812729428193  0.37760521778168926  1.0000
  C   C8        1.0  0.1173571654132024  0.7383781770324964  0.19655954194487532  1.0000
  N   N1        1.0  0.3468094743439839  0.3242570866020229  0.5616408753276813  1.0000
  N   N2        1.0  0.8881440638998865  0.9673959066443576  0.12207248536913062  1.0000
  N   N3        1.0  0.31404172582686063  0.26756166125594505  0.4439747176204524  1.0000
  N   N4        1.0  0.5952652039412609  0.6972464971101584  0.021454539624030784  1.0000
  O   O1        1.0  0.41274872533434603  0.6270694771629102  0.6578090053792154  1.0000
  O   O2        1.0  0.10493520524181107  0.9999530535302927  0.01987635992282799  1.0000
  O   O3        1.0  0.6207539088472596  0.9421616286807035  0.49308194942488914  1.0000
  O   O4        1.0  0.6841277108470454  0.11131419608180027  0.922540593909134  1.0000
  O   O5        1.0  0.9106727159979198  0.8112089406277898  0.5840043797763768  1.0000
  O   O6        1.0  0.8468606944895212  0.6555876523863644  0.7915526128759913  1.0000
  O   O7        1.0  0.028086942629781113  0.2488502333590103  0.35630177131090857  1.0000
  O   O8        1.0  0.909161205383601  0.6700221026955586  0.21969381043652647  1.0000
  O   O9        1.0  0.9962418852424981  0.14789761436021953  0.6801323260974325  1.0000
  O   O10       1.0  0.12202564587833553  0.19344399231905923  0.8238302376756417  1.0000
  O   O11       1.0  0.4531624863443671  0.3149102087493895  0.34806215750894565  1.0000
  O   O12       1.0  0.3202878682010323  0.6635561501762719  0.19125331874025925  1.0000
data_image34
_chemical_formula_structural       Na4C8N4O12
_chemical_formula_sum              "Na4 C8 N4 O12"
_cell_length_a       5.423166
_cell_length_b       3.6248270000000002
_cell_length_c       20.275782753631116
_cell_angle_alpha    88.79220736031418
_cell_angle_beta     90.0
_cell_angle_gamma    90.0

_space_group_name_H-M_alt    "P 1"
_space_group_IT_number       1

loop_
  _space_group_symop_operation_xyz
  'x, y, z'

loop_
  _atom_site_type_symbol
  _atom_site_label
  _atom_site_symmetry_multiplicity
  _atom_site_fract_x
  _atom_site_fract_y
  _atom_site_fract_z
  _atom_site_occupancy
  Na  Na1       1.0  0.036722931348321164  0.481634927941073  0.9453622962525879  1.0000
  Na  Na2       1.0  0.03276241016213655  0.6943905021034431  0.4661656154636786  1.0000
  Na  Na3       1.0  0.4793279462159068  0.2989241622882193  0.09848147089276063  1.0000
  Na  Na4       1.0  0.7706507096205645  0.8631424426957164  0.3138793958412932  1.0000
  C   C1        1.0  0.46084062960989497  0.3581478759082881  0.5802076201662084  1.0000
  C   C2        1.0  0.8990335998058785  0.9020469940407094  0.08289377086285366  1.0000
  C   C3        1.0  0.44133336952488844  0.2924404455839915  0.4769491507468469  1.0000
  C   C4        1.0  0.6001396220428958  0.8909663363716109  0.9629529425718174  1.0000
  C   C5        1.0  0.0001610344235045691  0.974722854199027  0.6578089952160359  1.0000
  C   C6        1.0  0.06300703245246123  0.5102466913672958  0.8169871946802069  1.0000
  C   C7        1.0  0.2967801820013195  0.3701844714712311  0.3691253957530577  1.0000
  C   C8        1.0  0.03588195141401784  0.4991257715097033  0.1650841517374935  1.0000
  N   N1        1.0  0.3188941978707217  0.37414628961928886  0.5336762476668945  1.0000
  N   N2        1.0  0.8461250082352394  0.6405719130190108  0.12153597225868307  1.0000
  N   N3        1.0  0.2983345135479467  0.17979701837549533  0.43409141340111806  1.0000
  N   N4        1.0  0.4870926949353691  0.6053150617632106  0.9973209973820334  1.0000
  O   O1        1.0  0.5266126198648823  0.5151691672052177  0.6324867456937353  1.0000
  O   O2        1.0  0.028329208073028522  0.12421656622089172  0.05640437997682324  1.0000
  O   O3        1.0  0.6782952343581021  0.3470808979017479  0.46916959470175745  1.0000
  O   O4        1.0  0.7067441054553378  0.04280931777349384  0.9256442469756859  1.0000
  O   O5        1.0  0.003585245397761616  0.773818847475741  0.6166842327350051  1.0000
  O   O6        1.0  0.8335089134742429  0.4584005744356281  0.8235296233817281  1.0000
  O   O7        1.0  0.0984531500425453  0.4965269329746636  0.3402700441537979  1.0000
  O   O8        1.0  0.012775217217458446  0.2469213990000518  0.202731152817127  1.0000
  O   O9        1.0  0.9750442080871747  0.15066666804551687  0.7049410852953809  1.0000
  O   O10       1.0  0.26815900555341066  0.5541646080959663  0.8169656895344419  1.0000
  O   O11       1.0  0.5087777077159007  0.40729028557865143  0.35368637305972134  1.0000
  O   O12       1.0  0.23367559612101416  0.7431375631485391  0.15376381398539626  1.0000
data_image35
_chemical_formula_structural       Na4C8N4O12
_chemical_formula_sum              "Na4 C8 N4 O12"
_cell_length_a       5.423166
_cell_length_b       3.6248270000000002
_cell_length_c       20.275782753631116
_cell_angle_alpha    88.79220736031418
_cell_angle_beta     90.0
_cell_angle_gamma    90.0

_space_group_name_H-M_alt    "P 1"
_space_group_IT_number       1

loop_
  _space_group_symop_operation_xyz
  'x, y, z'

loop_
  _atom_site_type_symbol
  _atom_site_label
  _atom_site_symmetry_multiplicity
  _atom_site_fract_x
  _atom_site_fract_y
  _atom_site_fract_z
  _atom_site_occupancy
  Na  Na1       1.0  0.0023037179826993492  0.36280658129068766  0.9370797739620493  1.0000
  Na  Na2       1.0  0.0644120466026661  0.9328327186734658  0.4681584177669135  1.0000
  Na  Na3       1.0  0.4983787035396136  0.12806824228626623  0.1946827773963995  1.0000
  Na  Na4       1.0  0.7649875488236144  0.7658872498707183  0.30907320455703213  1.0000
  C   C1        1.0  0.5402534182440266  0.3805913453416374  0.5734766296918343  1.0000
  C   C2        1.0  0.814062139082629  0.9393913604257538  0.08569783290577937  1.0000
  C   C3        1.0  0.5630482917945123  0.3781726079989398  0.45838542310539837  1.0000
  C   C4        1.0  0.5040953530086325  0.7222290657317421  0.9628724018378658  1.0000
  C   C5        1.0  0.0009555337241187178  0.9294877695773232  0.6436303248242801  1.0000
  C   C6        1.0  0.19152974138746112  0.5223132547242214  0.7896113076748268  1.0000
  C   C7        1.0  0.2938009601343887  0.4548374723554653  0.3603737404188112  1.0000
  C   C8        1.0  0.9177606340361161  0.5034843757738248  0.1854213333134262  1.0000
  N   N1        1.0  0.4477881209671996  0.5255111315663574  0.5206596947103935  1.0000
  N   N2        1.0  0.8248327196597918  0.6854972205074927  0.134318948606305  1.0000
  N   N3        1.0  0.4013872658039943  0.3364151804511013  0.4124996243940906  1.0000
  N   N4        1.0  0.28954327861017726  0.6734248149545652  0.9722290389481513  1.0000
  O   O1        1.0  0.5537144567370382  0.2119750133567666  0.6244909271518727  1.0000
  O   O2        1.0  0.9187739091446888  0.17017772550708332  0.054367336816031564  1.0000
  O   O3        1.0  0.7770417792447177  0.3342847244647509  0.46028435133658785  1.0000
  O   O4        1.0  0.6883945299033851  0.9180170113411947  0.9625823315341451  1.0000
  O   O5        1.0  0.05013927666697948  0.9195558863738923  0.5904522028177128  1.0000
  O   O6        1.0  0.0041432719737135104  0.6126664974964768  0.8206357062381558  1.0000
  O   O7        1.0  0.16609076628194222  0.764797709918737  0.36058184451656994  1.0000
  O   O8        1.0  0.8180244710310327  0.3870485673545188  0.2415759218522029  1.0000
  O   O9        1.0  0.9533137301587483  0.9993197752837901  0.6985800679488318  1.0000
  O   O10       1.0  0.3920919521894788  0.5104522598494812  0.7607422416278083  1.0000
  O   O11       1.0  0.3285769873016522  0.3464176987359606  0.2997361072985895  1.0000
  O   O12       1.0  0.17429824124088042  0.5038049927041421  0.18072123746477373  1.0000
data_image36
_chemical_formula_structural       Na4C8N4O12
_chemical_formula_sum              "Na4 C8 N4 O12"
_cell_length_a       5.423166
_cell_length_b       3.6248270000000002
_cell_length_c       20.275782753631116
_cell_angle_alpha    88.79220736031418
_cell_angle_beta     90.0
_cell_angle_gamma    90.0

_space_group_name_H-M_alt    "P 1"
_space_group_IT_number       1

loop_
  _space_group_symop_operation_xyz
  'x, y, z'

loop_
  _atom_site_type_symbol
  _atom_site_label
  _atom_site_symmetry_multiplicity
  _atom_site_fract_x
  _atom_site_fract_y
  _atom_site_fract_z
  _atom_site_occupancy
  Na  Na1       1.0  0.9787819664149249  0.392801643032308  0.9450485104556717  1.0000
  Na  Na2       1.0  0.05618543492814645  0.9786399260813561  0.4671613390766057  1.0000
  Na  Na3       1.0  0.4741614303255939  0.8366217728973613  0.22393656519980185  1.0000
  Na  Na4       1.0  0.6622704018352236  0.898514735300457  0.3556061153000774  1.0000
  C   C1        1.0  0.49504849145704516  0.5175709203029348  0.5873390578170224  1.0000
  C   C2        1.0  0.7906736365421623  0.8439865857216844  0.09521804217368413  1.0000
  C   C3        1.0  0.5572031875693095  0.48434793703962653  0.46298280359240107  1.0000
  C   C4        1.0  0.4446427577015102  0.8029031260092174  0.9422327812458727  1.0000
  C   C5        1.0  0.0032816355344054138  0.8692359150729446  0.6103977663711111  1.0000
  C   C6        1.0  0.4159386186300094  0.5167780332574777  0.7852997148126548  1.0000
  C   C7        1.0  0.2636697164593663  0.5720292217319509  0.35553186596184294  1.0000
  C   C8        1.0  0.9565517834330431  0.5438423564298454  0.20813280172171364  1.0000
  N   N1        1.0  0.4035029351249614  0.566067194190623  0.527064287407027  1.0000
  N   N2        1.0  0.7202628054072231  0.6088581620954057  0.1376058775107578  1.0000
  N   N3        1.0  0.40807132384275957  0.4176167494155574  0.41250713537531614  1.0000
  N   N4        1.0  0.24855345173710486  0.8011680168367492  0.9623679022763095  1.0000
  O   O1        1.0  0.570499955823179  0.3168793415004538  0.6280840620977071  1.0000
  O   O2        1.0  0.8565888757499771  0.05687176367844471  0.051887823748911543  1.0000
  O   O3        1.0  0.7890949576318924  0.4255626737305116  0.4572881719338005  1.0000
  O   O4        1.0  0.6667034297933371  0.7275023505784308  0.9321380759087063  1.0000
  O   O5        1.0  0.9994086376200298  0.08052977686355556  0.5669916363826277  1.0000
  O   O6        1.0  0.3089195053970504  0.28159791961515124  0.8092735401610517  1.0000
  O   O7        1.0  0.056568259335228445  0.755622848930392  0.3563705652838256  1.0000
  O   O8        1.0  0.8612125796957647  0.44487141941320646  0.2548293421662025  1.0000
  O   O9        1.0  0.025128638181100893  0.651658860168071  0.6532406030757967  1.0000
  O   O10       1.0  0.4630388980063873  0.7642525522239824  0.7444839185694431  1.0000
  O   O11       1.0  0.3769275434123031  0.3694199510654705  0.31098596978492604  1.0000
  O   O12       1.0  0.16139437200363826  0.5288943494141314  0.17957604969389215  1.0000
data_image37
_chemical_formula_structural       Na4C8N4O12
_chemical_formula_sum              "Na4 C8 N4 O12"
_cell_length_a       5.423166
_cell_length_b       3.6248270000000002
_cell_length_c       20.275782753631116
_cell_angle_alpha    88.79220736031418
_cell_angle_beta     90.0
_cell_angle_gamma    90.0

_space_group_name_H-M_alt    "P 1"
_space_group_IT_number       1

loop_
  _space_group_symop_operation_xyz
  'x, y, z'

loop_
  _atom_site_type_symbol
  _atom_site_label
  _atom_site_symmetry_multiplicity
  _atom_site_fract_x
  _atom_site_fract_y
  _atom_site_fract_z
  _atom_site_occupancy
  Na  Na1       1.0  0.9011422564127143  0.35639972809550224  0.9529839969632773  1.0000
  Na  Na2       1.0  0.14608432199767626  0.12507895712615236  0.46313105052653664  1.0000
  Na  Na3       1.0  0.3808294492136085  0.84451885714644  0.22000673973264698  1.0000
  Na  Na4       1.0  0.8314532640809892  0.30875662845252405  0.3392860421757075  1.0000
  C   C1        1.0  0.4381236892882789  0.4522700078877151  0.5743878706561996  1.0000
  C   C2        1.0  0.7350702508707052  0.9100489687959032  0.08788740813294638  1.0000
  C   C3        1.0  0.536873416405721  0.40252699798739533  0.45850994008827206  1.0000
  C   C4        1.0  0.41678477808784486  0.7684646063681615  0.9340488250250347  1.0000
  C   C5        1.0  0.9476550500683983  0.8360789628810283  0.6409212615686194  1.0000
  C   C6        1.0  0.6030248713433861  0.4780254408234323  0.8037849188095866  1.0000
  C   C7        1.0  0.2950001773838784  0.4873996592148611  0.3511860826433467  1.0000
  C   C8        1.0  0.9290966508648708  0.4217288292642922  0.18962823621788807  1.0000
  N   N1        1.0  0.3588820461464142  0.46096246393104034  0.5177015955521916  1.0000
  N   N2        1.0  0.73900170193906  0.7839658702611783  0.14322075589242078  1.0000
  N   N3        1.0  0.41819185062648145  0.3421749236377364  0.402266086308016  1.0000
  N   N4        1.0  0.26359064696441425  0.8549843805563095  0.9790129244842317  1.0000
  O   O1        1.0  0.39675939994621967  0.57375750461643  0.6280000283992503  1.0000
  O   O2        1.0  0.7430018764202533  0.9822255281013963  0.03093502886567001  1.0000
  O   O3        1.0  0.7730047981565877  0.4144062862216431  0.46514786655121504  1.0000
  O   O4        1.0  0.6000718008881559  0.6802615192618655  0.9014228237270667  1.0000
  O   O5        1.0  0.02352070642409476  0.022666259870423033  0.5996374197752173  1.0000
  O   O6        1.0  0.420594193961529  0.32889665266761825  0.8089858610199369  1.0000
  O   O7        1.0  0.11957912313189999  0.6665225304191044  0.3790481593912833  1.0000
  O   O8        1.0  0.7825299061340539  0.2719244228884024  0.22791392687541828  1.0000
  O   O9        1.0  0.8722662908439325  0.6081395749186573  0.6776994823133932  1.0000
  O   O10       1.0  0.7924908325719657  0.62500941088716  0.7847832410644426  1.0000
  O   O11       1.0  0.3496020186940857  0.3409832812394265  0.29606765489491876  1.0000
  O   O12       1.0  0.15295793546801112  0.3812149176947732  0.1712127195469449  1.0000
data_image38
_chemical_formula_structural       Na4C8N4O12
_chemical_formula_sum              "Na4 C8 N4 O12"
_cell_length_a       5.423166
_cell_length_b       3.6248270000000002
_cell_length_c       20.275782753631116
_cell_angle_alpha    88.79220736031418
_cell_angle_beta     90.0
_cell_angle_gamma    90.0

_space_group_name_H-M_alt    "P 1"
_space_group_IT_number       1

loop_
  _space_group_symop_operation_xyz
  'x, y, z'

loop_
  _atom_site_type_symbol
  _atom_site_label
  _atom_site_symmetry_multiplicity
  _atom_site_fract_x
  _atom_site_fract_y
  _atom_site_fract_z
  _atom_site_occupancy
  Na  Na1       1.0  0.8428120222107693  0.238149803137772  0.9574383802194478  1.0000
  Na  Na2       1.0  0.06834975443491319  0.9286963990353223  0.490184003653725  1.0000
  Na  Na3       1.0  0.3537165684878721  0.9392263508602386  0.19717208850318607  1.0000
  Na  Na4       1.0  0.914769193637305  0.3340366116735971  0.3234903282007573  1.0000
  C   C1        1.0  0.38658556482811174  0.42436813046801247  0.5592510815175264  1.0000
  C   C2        1.0  0.7533591642583817  0.8586458665964711  0.10354516065688912  1.0000
  C   C3        1.0  0.5830517745529085  0.39868042632041034  0.44980756244937103  1.0000
  C   C4        1.0  0.34659597559586164  0.7344334373672288  0.930551439140332  1.0000
  C   C5        1.0  0.8523530555378049  0.8348268783082763  0.6612025485105302  1.0000
  C   C6        1.0  0.7154408943598126  0.3982661066697556  0.803050790501884  1.0000
  C   C7        1.0  0.3579793041290518  0.6373537245750616  0.34925266714118947  1.0000
  C   C8        1.0  0.8907875540553752  0.4322787848934653  0.16883873366926389  1.0000
  N   N1        1.0  0.38406016880180643  0.4738668244064661  0.5035542101847482  1.0000
  N   N2        1.0  0.69011513649801  0.5886269249060239  0.13561828903649698  1.0000
  N   N3        1.0  0.5343406627489373  0.432360156382962  0.3840339193555506  1.0000
  N   N4        1.0  0.12491177358528205  0.700337675280094  0.9233916107601768  1.0000
  O   O1        1.0  0.4219788605091469  0.5959737844004347  0.6092970043756586  1.0000
  O   O2        1.0  0.7799345171945766  0.07988641575927347  0.06285070110335766  1.0000
  O   O3        1.0  0.8009889388138882  0.37985153337798994  0.4720775673646479  1.0000
  O   O4        1.0  0.5706402899109736  0.6700397905973132  0.9519914901352124  1.0000
  O   O5        1.0  0.9229922649383967  0.9585813900569587  0.6123031485343459  1.0000
  O   O6        1.0  0.5193882527592746  0.4926191327319074  0.8089189210765371  1.0000
  O   O7        1.0  0.19017350996958274  0.8193016446319549  0.37653588412290895  1.0000
  O   O8        1.0  0.8300441804827993  0.2861804930217839  0.22305411048202703  1.0000
  O   O9        1.0  0.7648908805946788  0.738716477957193  0.7111110102407808  1.0000
  O   O10       1.0  0.9259220870559004  0.3405756271481355  0.8215575395233565  1.0000
  O   O11       1.0  0.3734175527301335  0.5974864249296423  0.2884652688258642  1.0000
  O   O12       1.0  0.09378346265139839  0.4609152331115862  0.137213706531949  1.0000
data_image39
_chemical_formula_structural       Na4C8N4O12
_chemical_formula_sum              "Na4 C8 N4 O12"
_cell_length_a       5.423166
_cell_length_b       3.6248270000000002
_cell_length_c       20.275782753631116
_cell_angle_alpha    88.79220736031418
_cell_angle_beta     90.0
_cell_angle_gamma    90.0

_space_group_name_H-M_alt    "P 1"
_space_group_IT_number       1

loop_
  _space_group_symop_operation_xyz
  'x, y, z'

loop_
  _atom_site_type_symbol
  _atom_site_label
  _atom_site_symmetry_multiplicity
  _atom_site_fract_x
  _atom_site_fract_y
  _atom_site_fract_z
  _atom_site_occupancy
  Na  Na1       1.0  0.7292263647332247  0.010192328826756136  0.948458792705413  1.0000
  Na  Na2       1.0  0.9839670489094364  0.002982160670181422  0.5037432052285227  1.0000
  Na  Na3       1.0  0.48550786987950195  0.08287181418618172  0.20341020102470067  1.0000
  Na  Na4       1.0  0.9295393192566499  0.3316978027251455  0.3576065988936288  1.0000
  C   C1        1.0  0.37720803828549815  0.4495095799137385  0.529489839472496  1.0000
  C   C2        1.0  0.8521875381570427  0.7491071023129279  0.08681355374984556  1.0000
  C   C3        1.0  0.629440469545095  0.5313388310967857  0.43704660437413406  1.0000
  C   C4        1.0  0.27208708456286357  0.7002609323448967  0.9327553921267284  1.0000
  C   C5        1.0  0.8350248112910819  0.9331254228153928  0.6677168203788897  1.0000
  C   C6        1.0  0.667907561035639  0.2421671312574076  0.8125022978451119  1.0000
  C   C7        1.0  0.37547257603999606  0.6776765482764138  0.34295561157735  1.0000
  C   C8        1.0  0.9622219145182527  0.47053526600054374  0.1942545662798237  1.0000
  N   N1        1.0  0.41414557778530786  0.531288171366503  0.47438604567265386  1.0000
  N   N2        1.0  0.7238637927238691  0.6067547291200155  0.1276669994117996  1.0000
  N   N3        1.0  0.5786292641875874  0.6074231358209066  0.37363554249593983  1.0000
  N   N4        1.0  0.08671846498189995  0.7527866295655437  0.9008108920970662  1.0000
  O   O1        1.0  0.3281923676768717  0.45685223345751136  0.5890496377818084  1.0000
  O   O2        1.0  0.0022792125511502804  0.8248400513355325  0.04796803550520479  1.0000
  O   O3        1.0  0.8424838343424874  0.5337384718547621  0.46100526108524015  1.0000
  O   O4        1.0  0.42576038116162634  0.5714639627071343  0.9678092728317963  1.0000
  O   O5        1.0  0.9964289393743548  0.1369930501551866  0.6523658809220026  1.0000
  O   O6        1.0  0.46393278368064655  0.2892417215842038  0.8007824504876372  1.0000
  O   O7        1.0  0.1907372168500271  0.8585367320561518  0.36660208418866247  1.0000
  O   O8        1.0  0.8232477717406206  0.36456791740961575  0.23982373595818585  1.0000
  O   O9        1.0  0.6861285575644548  0.7667663956149532  0.7005549995134119  1.0000
  O   O10       1.0  0.8809088328998569  0.18810982063680023  0.8146515649765248  1.0000
  O   O11       1.0  0.3464956689924785  0.6494566573600343  0.2791644940011441  1.0000
  O   O12       1.0  0.15653636639925797  0.5032449121201858  0.16933728963794753  1.0000
data_image40
_chemical_formula_structural       Na4C8N4O12
_chemical_formula_sum              "Na4 C8 N4 O12"
_cell_length_a       5.423166
_cell_length_b       3.6248270000000002
_cell_length_c       20.275782753631116
_cell_angle_alpha    88.79220736031418
_cell_angle_beta     90.0
_cell_angle_gamma    90.0

_space_group_name_H-M_alt    "P 1"
_space_group_IT_number       1

loop_
  _space_group_symop_operation_xyz
  'x, y, z'

loop_
  _atom_site_type_symbol
  _atom_site_label
  _atom_site_symmetry_multiplicity
  _atom_site_fract_x
  _atom_site_fract_y
  _atom_site_fract_z
  _atom_site_occupancy
  Na  Na1       1.0  0.7899333550045804  0.2901074149423546  0.905436140311048  1.0000
  Na  Na2       1.0  0.02687892338859671  0.8901116961638127  0.5517577574891573  1.0000
  Na  Na3       1.0  0.4192096910696154  0.019072625698189016  0.23154459892479246  1.0000
  Na  Na4       1.0  0.9778386268330455  0.39615565899041727  0.3175920655175102  1.0000
  C   C1        1.0  0.3444620624212884  0.48969083144110637  0.5253154527070895  1.0000
  C   C2        1.0  0.7846310882242162  0.7066303995944658  0.07765436790208091  1.0000
  C   C3        1.0  0.6890817975694368  0.6228561331192497  0.45421955876988124  1.0000
  C   C4        1.0  0.32077130028687706  0.7023866924942819  0.939959357535904  1.0000
  C   C5        1.0  0.6926126839501024  0.8300263774879837  0.6641996880218428  1.0000
  C   C6        1.0  0.6421784129035426  0.17321409419354863  0.7859793530648806  1.0000
  C   C7        1.0  0.45340464939675446  0.7220297015528666  0.36398264175328016  1.0000
  C   C8        1.0  0.9552610608091681  0.5673761051358139  0.18477353457101647  1.0000
  N   N1        1.0  0.4656700112271063  0.7145040535250664  0.48998160806699004  1.0000
  N   N2        1.0  0.8301395022148481  0.8123406976432914  0.13275575483918023  1.0000
  N   N3        1.0  0.6833314998226523  0.67999347449147  0.3887893048418106  1.0000
  N   N4        1.0  0.2140527144642581  0.8851824937564077  0.9035581100887924  1.0000
  O   O1        1.0  0.28118178804958016  0.46004266194470667  0.5827891965691259  1.0000
  O   O2        1.0  0.8449823150815161  0.7103969386314526  0.018604386780054494  1.0000
  O   O3        1.0  0.8856601523762353  0.48932569791927605  0.4853544828503006  1.0000
  O   O4        1.0  0.41362998113932375  0.5021955662008146  0.9801463548719838  1.0000
  O   O5        1.0  0.8821100777929154  0.9910829095975223  0.6596003170529776  1.0000
  O   O6        1.0  0.49231400628704725  0.9565809756729917  0.7917031542967494  1.0000
  O   O7        1.0  0.25042695039497526  0.9205997118514944  0.37650521985532537  1.0000
  O   O8        1.0  0.8188579902257958  0.38918761633625315  0.22269018386490447  1.0000
  O   O9        1.0  0.5550095220015763  0.5789076878090967  0.6649527897217022  1.0000
  O   O10       1.0  0.7628254254369169  0.4575387933895569  0.7976869972918398  1.0000
  O   O11       1.0  0.4041499657012633  0.47729362163091205  0.31712439636730483  1.0000
  O   O12       1.0  0.15327680998297885  0.4070923198956713  0.17304533848414722  1.0000
data_image41
_chemical_formula_structural       Na4C8N4O12
_chemical_formula_sum              "Na4 C8 N4 O12"
_cell_length_a       5.423166
_cell_length_b       3.6248270000000002
_cell_length_c       20.275782753631116
_cell_angle_alpha    88.79220736031418
_cell_angle_beta     90.0
_cell_angle_gamma    90.0

_space_group_name_H-M_alt    "P 1"
_space_group_IT_number       1

loop_
  _space_group_symop_operation_xyz
  'x, y, z'

loop_
  _atom_site_type_symbol
  _atom_site_label
  _atom_site_symmetry_multiplicity
  _atom_site_fract_x
  _atom_site_fract_y
  _atom_site_fract_z
  _atom_site_occupancy
  Na  Na1       1.0  0.9251345427860127  0.3818516005296455  0.8920842976944191  1.0000
  Na  Na2       1.0  0.9885609001837053  0.9020631965546918  0.5513516017020004  1.0000
  Na  Na3       1.0  0.42398688820030506  0.2565359293448959  0.18842471081502163  1.0000
  Na  Na4       1.0  0.05089761401724857  0.36310294499079265  0.3355027646417201  1.0000
  C   C1        1.0  0.3701144944662744  0.5267911176122411  0.539301110577558  1.0000
  C   C2        1.0  0.8610670374330862  0.7511804989250348  0.07718428937011335  1.0000
  C   C3        1.0  0.694593644245795  0.5484512525072338  0.46888327168068217  1.0000
  C   C4        1.0  0.31375910064534795  0.7079881718412884  0.9331788385055655  1.0000
  C   C5        1.0  0.5903016845326571  0.7787537253669325  0.6667997863795356  1.0000
  C   C6        1.0  0.6383994658704533  0.09746884698360694  0.7972792821421028  1.0000
  C   C7        1.0  0.4349905483296188  0.6393150158412615  0.3784492074187478  1.0000
  C   C8        1.0  0.9534892425881285  0.610096407076888  0.1785966202148376  1.0000
  N   N1        1.0  0.5322987458325128  0.7048287452396844  0.5140190152718542  1.0000
  N   N2        1.0  0.7677458291107464  0.5964482530985682  0.1262208954683608  1.0000
  N   N3        1.0  0.6558558172533258  0.5392410403209977  0.39863951883619947  1.0000
  N   N4        1.0  0.24995911478372146  0.84613694714552  0.8864285871066758  1.0000
  O   O1        1.0  0.2734477268475263  0.2630224530571532  0.5676460592141589  1.0000
  O   O2        1.0  0.8476752254131117  0.8476546658393707  0.018023179968728487  1.0000
  O   O3        1.0  0.8993691179105836  0.439307727463805  0.48473550641314345  1.0000
  O   O4        1.0  0.36214902791105313  0.47096206770176896  0.9770711392259416  1.0000
  O   O5        1.0  0.7852846033587928  0.9699508378291446  0.6634433303722908  1.0000
  O   O6        1.0  0.41906850940808954  0.274821834619021  0.790812974346979  1.0000
  O   O7        1.0  0.21988319910002543  0.7845344572566862  0.3949213051892387  1.0000
  O   O8        1.0  0.899709361401505  0.3476644288436706  0.22464191719852905  1.0000
  O   O9        1.0  0.4013932430838553  0.6273996481211057  0.6660338199808855  1.0000
  O   O10       1.0  0.8290146363691568  0.9723394476750442  0.8080368950077175  1.0000
  O   O11       1.0  0.4025422481899471  0.5940936325557479  0.3155639654736523  1.0000
  O   O12       1.0  0.1646667138048034  0.7761412793469198  0.17272673916942632  1.0000
data_image42
_chemical_formula_structural       Na4C8N4O12
_chemical_formula_sum              "Na4 C8 N4 O12"
_cell_length_a       5.423166
_cell_length_b       3.6248270000000002
_cell_length_c       20.275782753631116
_cell_angle_alpha    88.79220736031418
_cell_angle_beta     90.0
_cell_angle_gamma    90.0

_space_group_name_H-M_alt    "P 1"
_space_group_IT_number       1

loop_
  _space_group_symop_operation_xyz
  'x, y, z'

loop_
  _atom_site_type_symbol
  _atom_site_label
  _atom_site_symmetry_multiplicity
  _atom_site_fract_x
  _atom_site_fract_y
  _atom_site_fract_z
  _atom_site_occupancy
  Na  Na1       1.0  0.9906284768883578  0.2591418344817801  0.9268681655206258  1.0000
  Na  Na2       1.0  0.034001695931996076  0.8756974029044358  0.5393667789289655  1.0000
  Na  Na3       1.0  0.4466457889644719  0.42186352747958833  0.2041724169303485  1.0000
  Na  Na4       1.0  0.8849438917742666  0.19385962588480987  0.32550055318452203  1.0000
  C   C1        1.0  0.4236482638629264  0.42733759384939973  0.5504372180964876  1.0000
  C   C2        1.0  0.823332870824871  0.73536442364368  0.05739746285648373  1.0000
  C   C3        1.0  0.66660363573499  0.5590241267862517  0.4575756955794631  1.0000
  C   C4        1.0  0.40179826479920866  0.6102678811530804  0.9317699778569386  1.0000
  C   C5        1.0  0.5603771833423423  0.8928269547005138  0.6472284164758217  1.0000
  C   C6        1.0  0.6835709946786239  0.08992877512310407  0.7997426025143672  1.0000
  C   C7        1.0  0.3860532790998247  0.7506987278370485  0.38389228313263346  1.0000
  C   C8        1.0  0.9202505374255145  0.6181187182772436  0.16646489542563384  1.0000
  N   N1        1.0  0.5363480919377653  0.6438786126911284  0.5113651032289455  1.0000
  N   N2        1.0  0.7698295546761562  0.5503459525512819  0.1081901894483237  1.0000
  N   N3        1.0  0.6459982218127887  0.6404732132135995  0.39450304662084307  1.0000
  N   N4        1.0  0.20531143165525556  0.7278694843613163  0.9081244989580294  1.0000
  O   O1        1.0  0.2425708025803117  0.2878578430727492  0.5875428740553802  1.0000
  O   O2        1.0  0.9290275030630791  0.8644881823384387  0.009039783470139007  1.0000
  O   O3        1.0  0.8531669486563422  0.3807459710596738  0.46418057535450064  1.0000
  O   O4        1.0  0.4857799844399914  0.4109935663488822  0.9815902831096551  1.0000
  O   O5        1.0  0.7650114738142967  0.9812208555302828  0.6410190176063134  1.0000
  O   O6        1.0  0.6547986486203959  0.18415089079122748  0.7474539415409992  1.0000
  O   O7        1.0  0.276972623673452  0.9657825697866725  0.4169157454294619  1.0000
  O   O8        1.0  0.8643470284853003  0.4989848308462199  0.2230861730680555  1.0000
  O   O9        1.0  0.36234629086784287  0.7823014496008882  0.6717390305935078  1.0000
  O   O10       1.0  0.7051229893738573  0.9572803145157993  0.8576854604855264  1.0000
  O   O11       1.0  0.31102982478251  0.6160552084998853  0.3327130493040962  1.0000
  O   O12       1.0  0.13710385568352754  0.7479396163057161  0.14632008863294044  1.0000
data_image43
_chemical_formula_structural       Na4C8N4O12
_chemical_formula_sum              "Na4 C8 N4 O12"
_cell_length_a       5.423166
_cell_length_b       3.6248270000000002
_cell_length_c       20.275782753631116
_cell_angle_alpha    88.79220736031418
_cell_angle_beta     90.0
_cell_angle_gamma    90.0

_space_group_name_H-M_alt    "P 1"
_space_group_IT_number       1

loop_
  _space_group_symop_operation_xyz
  'x, y, z'

loop_
  _atom_site_type_symbol
  _atom_site_label
  _atom_site_symmetry_multiplicity
  _atom_site_fract_x
  _atom_site_fract_y
  _atom_site_fract_z
  _atom_site_occupancy
  Na  Na1       1.0  0.9470674950604514  0.8607001538933876  0.9197294676944233  1.0000
  Na  Na2       1.0  0.9651036376309838  0.0074951683693327276  0.5076519116179902  1.0000
  Na  Na3       1.0  0.3901826780973876  0.22929193735056663  0.2503098642019285  1.0000
  Na  Na4       1.0  0.8797950292724205  0.18565532806939455  0.34118856297376804  1.0000
  C   C1        1.0  0.41333932431410336  0.47861743723238104  0.5448771639473914  1.0000
  C   C2        1.0  0.9025816517512981  0.8903572835699629  0.10137135863126434  1.0000
  C   C3        1.0  0.6088354992801095  0.6059030635654812  0.43579988499271705  1.0000
  C   C4        1.0  0.4312691240298949  0.4402303233264768  0.9465831570270954  1.0000
  C   C5        1.0  0.6501884900983825  0.9256000163359577  0.6444823483227531  1.0000
  C   C6        1.0  0.744786138717245  0.12870955873893067  0.787219852932407  1.0000
  C   C7        1.0  0.31246350737044487  0.8181823126257818  0.3613986830430379  1.0000
  C   C8        1.0  0.904414309559158  0.6145780691597216  0.19066102801118337  1.0000
  N   N1        1.0  0.5596720391676467  0.6888927562884521  0.5020033888029319  1.0000
  N   N2        1.0  0.7774607232573334  0.9088414836055789  0.15525073283852264  1.0000
  N   N3        1.0  0.5530893731262718  0.7883142156909195  0.3821826434739071  1.0000
  N   N4        1.0  0.23583746872350675  0.32629267968405107  0.9301202854949719  1.0000
  O   O1        1.0  0.20115069956270584  0.4164644171822516  0.5357914502119098  1.0000
  O   O2        1.0  0.004504918568423054  0.901240937167173  0.05192600104160561  1.0000
  O   O3        1.0  0.8131052520093014  0.43821779592311516  0.444493212101358  1.0000
  O   O4        1.0  0.6367369016210876  0.5054556462717585  0.9737925109018906  1.0000
  O   O5        1.0  0.7854875916607924  0.8008207714773167  0.609173142558766  1.0000
  O   O6        1.0  0.8401875566257463  0.36497229221725513  0.7555301807056489  1.0000
  O   O7        1.0  0.2261833815739925  0.9717568814155901  0.4103981721565487  1.0000
  O   O8        1.0  0.7524411909672256  0.40014470100293376  0.21868815458406216  1.0000
  O   O9        1.0  0.5094259798525748  0.11883619424988456  0.6836219643052648  1.0000
  O   O10       1.0  0.6571195316445237  0.8734835472307372  0.8170359147856631  1.0000
  O   O11       1.0  0.2211712977146695  0.7309820867545629  0.30410775526392775  1.0000
  O   O12       1.0  0.1421808288581301  0.5344177008348394  0.1857282505098001  1.0000
data_image44
_chemical_formula_structural       Na4C8N4O12
_chemical_formula_sum              "Na4 C8 N4 O12"
_cell_length_a       5.423166
_cell_length_b       3.6248270000000002
_cell_length_c       20.275782753631116
_cell_angle_alpha    88.79220736031418
_cell_angle_beta     90.0
_cell_angle_gamma    90.0

_space_group_name_H-M_alt    "P 1"
_space_group_IT_number       1

loop_
  _space_group_symop_operation_xyz
  'x, y, z'

loop_
  _atom_site_type_symbol
  _atom_site_label
  _atom_site_symmetry_multiplicity
  _atom_site_fract_x
  _atom_site_fract_y
  _atom_site_fract_z
  _atom_site_occupancy
  Na  Na1       1.0  0.028284240652055592  0.7133000703873908  0.9175741082370403  1.0000
  Na  Na2       1.0  0.8808162907087687  0.9597536168133087  0.515195116564637  1.0000
  Na  Na3       1.0  0.43903524013939066  0.11438859841404292  0.23347941249640403  1.0000
  Na  Na4       1.0  0.8584170054936423  0.33386279017403975  0.3208987363399428  1.0000
  C   C1        1.0  0.2650576979822089  0.5571322038626525  0.5300834856097452  1.0000
  C   C2        1.0  0.8765098505247011  0.9353330626673999  0.1010674495369599  1.0000
  C   C3        1.0  0.5953684358602587  0.641501424572263  0.43446576616807303  1.0000
  C   C4        1.0  0.46470015849206225  0.3889923849463217  0.945415754197842  1.0000
  C   C5        1.0  0.8156670195411165  0.9105681632294733  0.6447369037828983  1.0000
  C   C6        1.0  0.9257959595629982  0.23651925055495687  0.7879605222402928  1.0000
  C   C7        1.0  0.2316578446775797  0.7943671748493664  0.36768241402365454  1.0000
  C   C8        1.0  0.8094331930902423  0.5568544386319956  0.1917627475297109  1.0000
  N   N1        1.0  0.5041894466834459  0.6732361759749026  0.5249102330049138  1.0000
  N   N2        1.0  0.7229642901203823  0.7135670643241112  0.12625136801557102  1.0000
  N   N3        1.0  0.4854689999695536  0.8494638380720062  0.3890588028043735  1.0000
  N   N4        1.0  0.29670277950992774  0.21924471443856364  0.9237884713330049  1.0000
  O   O1        1.0  0.06316522513865672  0.4310380389089081  0.5480537912720662  1.0000
  O   O2        1.0  0.9334977460642433  0.146772937870412  0.05949515058645183  1.0000
  O   O3        1.0  0.7287826858470989  0.38919869509995575  0.43315982571682105  1.0000
  O   O4        1.0  0.6745823476123766  0.46142681876976743  0.957412990374396  1.0000
  O   O5        1.0  0.9916073131558301  0.7247616618105279  0.641484535207377  1.0000
  O   O6        1.0  0.14001680888711032  0.1619921605839585  0.7772097926936051  1.0000
  O   O7        1.0  0.10367289005451767  0.8647015447170202  0.41825773119835624  1.0000
  O   O8        1.0  0.6863630658445382  0.675859298404703  0.23870479386760207  1.0000
  O   O9        1.0  0.6626461494331357  0.15984232800594156  0.655212310211196  1.0000
  O   O10       1.0  0.7215719280732513  0.24891960908840577  0.8080561393447564  1.0000
  O   O11       1.0  0.1881776421680891  0.8571179737175209  0.3083700890539189  1.0000
  O   O12       1.0  0.9510140814073191  0.2974288778886811  0.20233270564548425  1.0000
data_image45
_chemical_formula_structural       Na4C8N4O12
_chemical_formula_sum              "Na4 C8 N4 O12"
_cell_length_a       5.423166
_cell_length_b       3.6248270000000002
_cell_length_c       20.275782753631116
_cell_angle_alpha    88.79220736031418
_cell_angle_beta     90.0
_cell_angle_gamma    90.0

_space_group_name_H-M_alt    "P 1"
_space_group_IT_number       1

loop_
  _space_group_symop_operation_xyz
  'x, y, z'

loop_
  _atom_site_type_symbol
  _atom_site_label
  _atom_site_symmetry_multiplicity
  _atom_site_fract_x
  _atom_site_fract_y
  _atom_site_fract_z
  _atom_site_occupancy
  Na  Na1       1.0  0.9734169061134867  0.7430408395192463  0.9294826375242786  1.0000
  Na  Na2       1.0  0.9516450937375929  0.9362549660591946  0.5177811255602378  1.0000
  Na  Na3       1.0  0.3255238614332286  0.11952224283494695  0.192449992173525  1.0000
  Na  Na4       1.0  0.902656449721621  0.07620241499394276  0.28466636772196663  1.0000
  C   C1        1.0  0.28097346354602787  0.4524733306802715  0.5767288973450048  1.0000
  C   C2        1.0  0.7657133296227054  0.791887623406758  0.06986271569274427  1.0000
  C   C3        1.0  0.5718513507148562  0.6063344287506569  0.43441238890333045  1.0000
  C   C4        1.0  0.49675539430016324  0.08021671047984724  0.9187951208131657  1.0000
  C   C5        1.0  0.7063591354463843  0.9677619764087106  0.6852162633102309  1.0000
  C   C6        1.0  0.08277566921201718  0.49605533025750076  0.8039769269881618  1.0000
  C   C7        1.0  0.22691539900062205  0.9383283429457334  0.3578183169685966  1.0000
  C   C8        1.0  0.8203370649806384  0.635046412219475  0.17695619195293205  1.0000
  N   N1        1.0  0.33988307618269403  0.7323107774785491  0.5441557434524923  1.0000
  N   N2        1.0  0.6353840292162791  0.727404428210378  0.11431809741959476  1.0000
  N   N3        1.0  0.4689109356589869  0.8161690783244371  0.3973543270772996  1.0000
  N   N4        1.0  0.30369511465579735  0.025368094081271497  0.8927763574251324  1.0000
  O   O1        1.0  0.10964003543897011  0.24448430893455875  0.597528445397077  1.0000
  O   O2        1.0  0.9580612049689757  0.74720690798984  0.04010230419494176  1.0000
  O   O3        1.0  0.6977546578191589  0.4679645517603138  0.47511956363562496  1.0000
  O   O4        1.0  0.717511119686277  0.13646971877864167  0.9271584081495998  1.0000
  O   O5        1.0  0.9354711132564317  0.9253112779471422  0.6918749337320605  1.0000
  O   O6        1.0  0.23674951417861223  0.3102926201531171  0.7829215277996834  1.0000
  O   O7        1.0  0.010638315275317336  0.9758446712332437  0.3825324176344197  1.0000
  O   O8        1.0  0.7393857010309078  0.717556563224811  0.23367000912783314  1.0000
  O   O9        1.0  0.5061550985366129  0.10483264970581563  0.6991530512094108  1.0000
  O   O10       1.0  0.9184763353197201  0.6426029669353558  0.8346366767435337  1.0000
  O   O11       1.0  0.31049027779836513  0.08671223236384318  0.30661091869357265  1.0000
  O   O12       1.0  0.038171817402595086  0.587439495653908  0.16424358486957902  1.0000
data_image46
_chemical_formula_structural       Na4C8N4O12
_chemical_formula_sum              "Na4 C8 N4 O12"
_cell_length_a       5.423166
_cell_length_b       3.6248270000000002
_cell_length_c       20.275782753631116
_cell_angle_alpha    88.79220736031418
_cell_angle_beta     90.0
_cell_angle_gamma    90.0

_space_group_name_H-M_alt    "P 1"
_space_group_IT_number       1

loop_
  _space_group_symop_operation_xyz
  'x, y, z'

loop_
  _atom_site_type_symbol
  _atom_site_label
  _atom_site_symmetry_multiplicity
  _atom_site_fract_x
  _atom_site_fract_y
  _atom_site_fract_z
  _atom_site_occupancy
  Na  Na1       1.0  0.06636313630653257  0.5633133872188232  0.9312307155332151  1.0000
  Na  Na2       1.0  0.8804511637344588  0.8952519235032215  0.508830196822512  1.0000
  Na  Na3       1.0  0.3143757478694483  0.9953264577991686  0.2000996508268729  1.0000
  Na  Na4       1.0  0.7427443108146057  0.19053405066691997  0.30216563945814223  1.0000
  C   C1        1.0  0.26388905374302396  0.5354517901498028  0.572338155592784  1.0000
  C   C2        1.0  0.7614908248133598  0.7064291976120622  0.05466690978701805  1.0000
  C   C3        1.0  0.571923086741176  0.5296072122984657  0.4215651651596523  1.0000
  C   C4        1.0  0.5307344439311794  0.18557824863446815  0.932689943589444  1.0000
  C   C5        1.0  0.6651745059622829  0.8895782291386926  0.6779565839471904  1.0000
  C   C6        1.0  0.11819347000236835  0.7335252058212273  0.8110985974624983  1.0000
  C   C7        1.0  0.3169960904755627  0.015297885717929338  0.36846116040150734  1.0000
  C   C8        1.0  0.8047809080489612  0.5582619695465298  0.17392752637545963  1.0000
  N   N1        1.0  0.38921854334212413  0.769684765159482  0.5441550506051793  1.0000
  N   N2        1.0  0.790471137329837  0.774369526046683  0.10897768841631361  1.0000
  N   N3        1.0  0.618249119080978  0.7610616904659757  0.38198853299225705  1.0000
  N   N4        1.0  0.3324592543573306  0.12070494101969165  0.9630088831696936  1.0000
  O   O1        1.0  0.12893857402559125  0.33199282519151074  0.6058818063713131  1.0000
  O   O2        1.0  0.7821360428327608  0.5993000734198688  0.0020946987396006644  1.0000
  O   O3        1.0  0.5704017239070558  0.3212482824800075  0.46654558911067545  1.0000
  O   O4        1.0  0.719146584812955  0.18161700545921722  0.8943956000170008  1.0000
  O   O5        1.0  0.8669965825903552  0.9252547985693274  0.6491973818834919  1.0000
  O   O6        1.0  0.31249488962487093  0.8713699600290006  0.8123930729672696  1.0000
  O   O7        1.0  0.18481282591870213  0.0406713455393497  0.41586398390719015  1.0000
  O   O8        1.0  0.6166224681773776  0.5881488638630629  0.21024469368862744  1.0000
  O   O9        1.0  0.48521225103129484  0.9862577774731045  0.7049763776539233  1.0000
  O   O10       1.0  0.9473785406927315  0.5355031763374356  0.8001652421122588  1.0000
  O   O11       1.0  0.3655292335742748  0.18452849037462227  0.32003605650994427  1.0000
  O   O12       1.0  0.01660386320173203  0.46341937762773266  0.19265270485913918  1.0000
data_image47
_chemical_formula_structural       Na4C8N4O12
_chemical_formula_sum              "Na4 C8 N4 O12"
_cell_length_a       5.423166
_cell_length_b       3.6248270000000002
_cell_length_c       20.275782753631116
_cell_angle_alpha    88.79220736031418
_cell_angle_beta     90.0
_cell_angle_gamma    90.0

_space_group_name_H-M_alt    "P 1"
_space_group_IT_number       1

loop_
  _space_group_symop_operation_xyz
  'x, y, z'

loop_
  _atom_site_type_symbol
  _atom_site_label
  _atom_site_symmetry_multiplicity
  _atom_site_fract_x
  _atom_site_fract_y
  _atom_site_fract_z
  _atom_site_occupancy
  Na  Na1       1.0  0.0639618316765963  0.642834132950679  0.9341210846645136  1.0000
  Na  Na2       1.0  0.7720705513346091  0.8024973534733701  0.5158523917095059  1.0000
  Na  Na3       1.0  0.36202741228079144  0.0015733411698866107  0.19705477490277398  1.0000
  Na  Na4       1.0  0.850471316412299  0.28165321017949485  0.30471098996585055  1.0000
  C   C1        1.0  0.24931380620807375  0.4590400203647551  0.5476057838020164  1.0000
  C   C2        1.0  0.8604607391037398  0.6393116492098381  0.09211764544513334  1.0000
  C   C3        1.0  0.6634377146009391  0.5800543278319136  0.3935698798872336  1.0000
  C   C4        1.0  0.5601883255404259  0.07305768206517338  0.9589564030794423  1.0000
  C   C5        1.0  0.6110456637188532  0.9701786366399546  0.678560103720394  1.0000
  C   C6        1.0  0.026222275968585285  0.9054072613621331  0.8010853557228739  1.0000
  C   C7        1.0  0.24264699919103502  0.9105336547792748  0.35213940212243156  1.0000
  C   C8        1.0  0.9387549731729279  0.6520296005512691  0.18907673755425017  1.0000
  N   N1        1.0  0.37211951280211125  0.7021479472720251  0.5658220432548045  1.0000
  N   N2        1.0  0.003977101227725766  0.8409295696153023  0.1184676918014338  1.0000
  N   N3        1.0  0.5367255981279635  0.7613465143333148  0.3500680126831389  1.0000
  N   N4        1.0  0.3525666799106637  0.20730330681989395  0.9679040550982482  1.0000
  O   O1        1.0  0.07993044847337769  0.23717305059551008  0.5277939279123744  1.0000
  O   O2        1.0  0.7243663074606905  0.42442548081918585  0.06869065865531465  1.0000
  O   O3        1.0  0.7858262351646121  0.36132372381584343  0.41737419731148034  1.0000
  O   O4        1.0  0.7236627246530878  0.8571528090919162  0.9659885423150508  1.0000
  O   O5        1.0  0.7659490403768154  0.9255007770232098  0.641811554477558  1.0000
  O   O6        1.0  0.1964613456247848  0.09353656578471936  0.8220495625194473  1.0000
  O   O7        1.0  0.11702599244324993  0.7533711483243948  0.3955631274356923  1.0000
  O   O8        1.0  0.6926616706392356  0.705888536208557  0.20326893065688964  1.0000
  O   O9        1.0  0.40671067971185315  0.010363315978366261  0.6997876794485407  1.0000
  O   O10       1.0  0.8619725132772416  0.7432951104508655  0.7747683558535118  1.0000
  O   O11       1.0  0.2572299208951695  0.19126414796631042  0.3148654105235083  1.0000
  O   O12       1.0  0.11313317291523906  0.5050633194660241  0.2246275677683319  1.0000
data_image48
_chemical_formula_structural       Na4C8N4O12
_chemical_formula_sum              "Na4 C8 N4 O12"
_cell_length_a       5.423166
_cell_length_b       3.6248270000000002
_cell_length_c       20.275782753631116
_cell_angle_alpha    88.79220736031418
_cell_angle_beta     90.0
_cell_angle_gamma    90.0

_space_group_name_H-M_alt    "P 1"
_space_group_IT_number       1

loop_
  _space_group_symop_operation_xyz
  'x, y, z'

loop_
  _atom_site_type_symbol
  _atom_site_label
  _atom_site_symmetry_multiplicity
  _atom_site_fract_x
  _atom_site_fract_y
  _atom_site_fract_z
  _atom_site_occupancy
  Na  Na1       1.0  0.0772472678997399  0.5216710986893351  0.9243244255978187  1.0000
  Na  Na2       1.0  0.7746605727851632  0.9581609786593935  0.5359536089209739  1.0000
  Na  Na3       1.0  0.459600528448144  0.2440424284231162  0.16905239630218305  1.0000
  Na  Na4       1.0  0.9100013588707796  0.2502119364674408  0.31294907346214157  1.0000
  C   C1        1.0  0.19914746800628294  0.5491068712378888  0.52236549378815  1.0000
  C   C2        1.0  0.856613970011388  0.17194831228422025  0.10512345343512863  1.0000
  C   C3        1.0  0.5693941507786813  0.4913767324385392  0.40782677604360335  1.0000
  C   C4        1.0  0.46553789161731407  0.8496457883807342  0.9765299900252856  1.0000
  C   C5        1.0  0.5640207042135658  0.1715909292231903  0.6550288403584121  1.0000
  C   C6        1.0  0.9954725973464925  0.22791348182167948  0.7971522043224796  1.0000
  C   C7        1.0  0.3501718374378542  0.8256330314312543  0.3550168625745111  1.0000
  C   C8        1.0  0.009092815194116755  0.6523198055372739  0.18202312748883812  1.0000
  N   N1        1.0  0.41505032184861246  0.46351135480340133  0.5322944152993813  1.0000
  N   N2        1.0  0.04397793342863143  0.28577621813071397  0.13382372792042418  1.0000
  N   N3        1.0  0.6215141988557227  0.7455246376166464  0.3674668900037375  1.0000
  N   N4        1.0  0.3013225412211924  0.06445575913782697  0.9800798549593293  1.0000
  O   O1        1.0  0.9936207880711283  0.49435644896366737  0.5458919278491814  1.0000
  O   O2        1.0  0.6678430702665665  0.029067540529434055  0.09196659632239812  1.0000
  O   O3        1.0  0.6655852935459237  0.22145943406523727  0.4318731659716545  1.0000
  O   O4        1.0  0.6011920883715259  0.5794255535401124  0.9644759465430921  1.0000
  O   O5        1.0  0.776974451341514  0.1593816028351862  0.6510759861555415  1.0000
  O   O6        1.0  0.21779781254148878  0.2600697934455227  0.8016398180432142  1.0000
  O   O7        1.0  0.13789665554340788  0.7502782525029377  0.38928217423357353  1.0000
  O   O8        1.0  0.7795091005174012  0.7325572614674525  0.18568695747195685  1.0000
  O   O9        1.0  0.35061520727327067  0.15591604897952083  0.6436294234816983  1.0000
  O   O10       1.0  0.7759234313701322  0.20351770078971065  0.8134762857506297  1.0000
  O   O11       1.0  0.3580914999928755  0.14841854908161767  0.3259680885026354  1.0000
  O   O12       1.0  0.1571800398566246  0.7431103079335668  0.224048169854251  1.0000
data_image49
_chemical_formula_structural       Na4C8N4O12
_chemical_formula_sum              "Na4 C8 N4 O12"
_cell_length_a       5.423166
_cell_length_b       3.6248270000000002
_cell_length_c       20.275782753631116
_cell_angle_alpha    88.79220736031418
_cell_angle_beta     90.0
_cell_angle_gamma    90.0

_space_group_name_H-M_alt    "P 1"
_space_group_IT_number       1

loop_
  _space_group_symop_operation_xyz
  'x, y, z'

loop_
  _atom_site_type_symbol
  _atom_site_label
  _atom_site_symmetry_multiplicity
  _atom_site_fract_x
  _atom_site_fract_y
  _atom_site_fract_z
  _atom_site_occupancy
  Na  Na1       1.0  0.9229520684922872  0.3939680576150242  0.9323358182206049  1.0000
  Na  Na2       1.0  0.8740895824413534  0.9268407648229035  0.5842135225657172  1.0000
  Na  Na3       1.0  0.2956705158674005  0.08397572701368494  0.16377632439037712  1.0000
  Na  Na4       1.0  0.8313982043842003  0.39785815236774913  0.3313779917085842  1.0000
  C   C1        1.0  0.260508019065557  0.5192350063035414  0.5681704756564709  1.0000
  C   C2        1.0  0.8935284222467323  0.20087942620256283  0.06313567135119258  1.0000
  C   C3        1.0  0.6311076652582193  0.6400438273213125  0.42348657557755776  1.0000
  C   C4        1.0  0.4162577525054414  0.7274430153345741  0.9269719502743196  1.0000
  C   C5        1.0  0.557524300117834  0.22004247154665135  0.6894478232824635  1.0000
  C   C6        1.0  0.09697357436632026  0.3233488667092621  0.8082860311576743  1.0000
  C   C7        1.0  0.44345143124987646  0.9093548959825083  0.3231256562632136  1.0000
  C   C8        1.0  0.8567928545268312  0.4311231965028637  0.18073591823030882  1.0000
  N   N1        1.0  0.4571466812204479  0.6643297987968448  0.5555364647685814  1.0000
  N   N2        1.0  0.9337956853607183  0.2484088976672325  0.12351968161768556  1.0000
  N   N3        1.0  0.6334452257701202  0.8796927997490301  0.3843637382073349  1.0000
  N   N4        1.0  0.27840411744360183  0.7694715144984258  0.9694460701505152  1.0000
  O   O1        1.0  0.060013158872302984  0.39631311202028674  0.5774163124070854  1.0000
  O   O2        1.0  0.8046207568825263  0.12804376097189274  0.011852206211786509  1.0000
  O   O3        1.0  0.6969793449989756  0.42598961335645935  0.4665840264314  1.0000
  O   O4        1.0  0.6090072400186639  0.7481758362181263  0.8922642932822636  1.0000
  O   O5        1.0  0.7016982999213935  0.4457144765545744  0.708513233056398  1.0000
  O   O6        1.0  0.26546428977843495  0.4309060036226353  0.77462320009503  1.0000
  O   O7        1.0  0.22184506767235482  0.933434026434392  0.3371864208841463  1.0000
  O   O8        1.0  0.6376248281948682  0.5083918967818322  0.1945932041558528  1.0000
  O   O9        1.0  0.430346252200899  0.9649613851997498  0.6761237833297993  1.0000
  O   O10       1.0  0.8802813540915142  0.28391908250970954  0.8260106528902572  1.0000
  O   O11       1.0  0.5351561984563578  0.9801334772295553  0.2748423918997677  1.0000
  O   O12       1.0  0.024260046071044792  0.4474698876986176  0.22581240613265277  1.0000
data_image50
_chemical_formula_structural       Na4C8N4O12
_chemical_formula_sum              "Na4 C8 N4 O12"
_cell_length_a       5.423166
_cell_length_b       3.6248270000000002
_cell_length_c       20.275782753631116
_cell_angle_alpha    88.79220736031418
_cell_angle_beta     90.0
_cell_angle_gamma    90.0

_space_group_name_H-M_alt    "P 1"
_space_group_IT_number       1

loop_
  _space_group_symop_operation_xyz
  'x, y, z'

loop_
  _atom_site_type_symbol
  _atom_site_label
  _atom_site_symmetry_multiplicity
  _atom_site_fract_x
  _atom_site_fract_y
  _atom_site_fract_z
  _atom_site_occupancy
  Na  Na1       1.0  0.855222863862781  0.5927135374036574  0.9536061762764794  1.0000
  Na  Na2       1.0  0.8065279482760944  0.10039651095559288  0.5309256722410387  1.0000
  Na  Na3       1.0  0.3311169687092397  0.6528087564508962  0.21526904476692746  1.0000
  Na  Na4       1.0  0.8980537433114087  0.26348977087910963  0.3089977841830079  1.0000
  C   C1        1.0  0.2924228440710172  0.6601322045588729  0.5579177522343938  1.0000
  C   C2        1.0  0.8684589060851595  0.10450650402877804  0.04417937090228219  1.0000
  C   C3        1.0  0.6290494000695537  0.8088334460184949  0.44764336426154233  1.0000
  C   C4        1.0  0.4159000050084565  0.7144565661857424  0.9128212559745066  1.0000
  C   C5        1.0  0.6334605538719711  0.2480870226740699  0.7085486761081498  1.0000
  C   C6        1.0  0.1962118314804282  0.39592720387795866  0.8033726514146706  1.0000
  C   C7        1.0  0.3312469744195705  0.9186788766545372  0.3694848523316122  1.0000
  C   C8        1.0  0.8347259943219081  0.38274091133911425  0.13922919049708082  1.0000
  N   N1        1.0  0.4712791826973279  0.8277861653833398  0.567876700191123  1.0000
  N   N2        1.0  0.028650280829789487  0.24292611913605278  0.08695610860710135  1.0000
  N   N3        1.0  0.48715210358348626  0.03152616528428552  0.4258787586994603  1.0000
  N   N4        1.0  0.32110294204383005  0.5255356383033117  0.9549869165609048  1.0000
  O   O1        1.0  0.11834083991678472  0.4389504591739397  0.5588000622327046  1.0000
  O   O2        1.0  0.6810056046101345  0.007406339084333968  0.02446377882002193  1.0000
  O   O3        1.0  0.7651930521316053  0.5885730064331551  0.46934387746885553  1.0000
  O   O4        1.0  0.5636714257371827  0.8323138099844929  0.8678963705805294  1.0000
  O   O5        1.0  0.8150130111584484  0.30088443778470997  0.7425273084868221  1.0000
  O   O6        1.0  0.2649250524239328  0.6487028325193229  0.7706705184083602  1.0000
  O   O7        1.0  0.11033434174658382  0.8021536156061855  0.37171017780678817  1.0000
  O   O8        1.0  0.6173402868428521  0.4419144532181572  0.13283272761118314  1.0000
  O   O9        1.0  0.4359102739921751  0.1691216962151656  0.6859906496348204  1.0000
  O   O10       1.0  0.12680525450827007  0.14774067817844094  0.8342308169896931  1.0000
  O   O11       1.0  0.44257165615243216  0.9370082671098492  0.3146346446455721  1.0000
  O   O12       1.0  0.9366931465328049  0.40280447082280246  0.19488179059788888  1.0000
data_image51
_chemical_formula_structural       Na4C8N4O12
_chemical_formula_sum              "Na4 C8 N4 O12"
_cell_length_a       5.423166
_cell_length_b       3.6248270000000002
_cell_length_c       20.275782753631116
_cell_angle_alpha    88.79220736031418
_cell_angle_beta     90.0
_cell_angle_gamma    90.0

_space_group_name_H-M_alt    "P 1"
_space_group_IT_number       1

loop_
  _space_group_symop_operation_xyz
  'x, y, z'

loop_
  _atom_site_type_symbol
  _atom_site_label
  _atom_site_symmetry_multiplicity
  _atom_site_fract_x
  _atom_site_fract_y
  _atom_site_fract_z
  _atom_site_occupancy
  Na  Na1       1.0  0.9376831411955253  0.6686553291178268  0.9589276679182684  1.0000
  Na  Na2       1.0  0.8198483321215099  0.3973725316219654  0.5475456064858056  1.0000
  Na  Na3       1.0  0.38424809602257676  0.605225729302592  0.2231843451145195  1.0000
  Na  Na4       1.0  0.8786081946053622  0.9996649393922206  0.34639026741570456  1.0000
  C   C1        1.0  0.26408430517516135  0.690372656700154  0.5527548335698963  1.0000
  C   C2        1.0  0.7974004348815813  0.14506826458179578  0.07643233276785133  1.0000
  C   C3        1.0  0.4522773345511055  0.7727104767449302  0.4487983310155611  1.0000
  C   C4        1.0  0.45684859899995023  0.9821484649881755  0.8884274053309097  1.0000
  C   C5        1.0  0.6474492259751056  0.08408465614099203  0.6982180903324301  1.0000
  C   C6        1.0  0.15027844113755573  0.5014394496832  0.7977553914689194  1.0000
  C   C7        1.0  0.311007343919653  0.7493516632552341  0.34391613172339713  1.0000
  C   C8        1.0  0.9069707080885178  0.16739252028106866  0.17913047834218476  1.0000
  N   N1        1.0  0.4652036166600476  0.7391955811660895  0.5162747310177662  1.0000
  N   N2        1.0  0.9500349861021284  0.9779502338759123  0.11302038716708562  1.0000
  N   N3        1.0  0.25235550520785455  0.8255904741035064  0.41844933555361374  1.0000
  N   N4        1.0  0.3122323926461341  0.7317307250993615  0.8960607440204181  1.0000
  O   O1        1.0  0.1313987088392921  0.685493504728494  0.6001872459601303  1.0000
  O   O2        1.0  0.6633414303547802  0.3043174315064878  0.037684002394578364  1.0000
  O   O3        1.0  0.6680025138981178  0.7958914118420681  0.43270394619261693  1.0000
  O   O4        1.0  0.676312946687799  0.17276530348909813  0.8892973632764135  1.0000
  O   O5        1.0  0.6338906367337587  0.24008575896330853  0.7466512663298286  1.0000
  O   O6        1.0  0.26197036153552644  0.7152242415614176  0.7613630662771433  1.0000
  O   O7        1.0  0.1545883336489389  0.5668738498463646  0.30637451874667315  1.0000
  O   O8        1.0  0.7629464034298964  0.4428358833929877  0.18400516585404855  1.0000
  O   O9        1.0  0.6068854952562477  0.9497842913084797  0.6446285889786122  1.0000
  O   O10       1.0  0.012484024011664818  0.24415886651664032  0.8150302143546732  1.0000
  O   O11       1.0  0.5214251010253251  0.8572289443912404  0.3119081166833202  1.0000
  O   O12       1.0  0.04800876259550733  0.06789848584763525  0.22069519120286105  1.0000
data_image52
_chemical_formula_structural       Na4C8N4O12
_chemical_formula_sum              "Na4 C8 N4 O12"
_cell_length_a       5.423166
_cell_length_b       3.6248270000000002
_cell_length_c       20.275782753631116
_cell_angle_alpha    88.79220736031418
_cell_angle_beta     90.0
_cell_angle_gamma    90.0

_space_group_name_H-M_alt    "P 1"
_space_group_IT_number       1

loop_
  _space_group_symop_operation_xyz
  'x, y, z'

loop_
  _atom_site_type_symbol
  _atom_site_label
  _atom_site_symmetry_multiplicity
  _atom_site_fract_x
  _atom_site_fract_y
  _atom_site_fract_z
  _atom_site_occupancy
  Na  Na1       1.0  0.8550171288024455  0.6379888343093085  0.906080868258453  1.0000
  Na  Na2       1.0  0.7684283111046071  0.24623682920782053  0.572052006493006  1.0000
  Na  Na3       1.0  0.4193122354000421  0.4708529636760292  0.17448040208455023  1.0000
  Na  Na4       1.0  0.9360019630964964  0.9562630430862926  0.34256512423511376  1.0000
  C   C1        1.0  0.2510158585205396  0.7428543871120807  0.5552017298780544  1.0000
  C   C2        1.0  0.894556913561465  0.4210619331812453  0.05612382555820172  1.0000
  C   C3        1.0  0.5577883597429938  0.520708797439583  0.4808847109636852  1.0000
  C   C4        1.0  0.37865326688219203  0.20906312454988463  0.9181792524068659  1.0000
  C   C5        1.0  0.6063907500390506  0.050762153223226525  0.6943295878756252  1.0000
  C   C6        1.0  0.9987723637285807  0.464584573001513  0.760716550358379  1.0000
  C   C7        1.0  0.37565410205621147  0.6711618546791281  0.36643528551425686  1.0000
  C   C8        1.0  0.9367877986211537  0.16907269294511784  0.17433260017666824  1.0000
  N   N1        1.0  0.4270772529851243  0.5460080021594582  0.5463172590455694  1.0000
  N   N2        1.0  0.9714087356085483  0.3111126694612951  0.1086042793068207  1.0000
  N   N3        1.0  0.45636620715754317  0.540630459801213  0.41903571928271816  1.0000
  N   N4        1.0  0.1683682811326217  0.15751037830212322  0.9430543186472831  1.0000
  O   O1        1.0  0.1312289076773005  0.9823614751949565  0.584471052471722  1.0000
  O   O2        1.0  0.7971627971602682  0.6323608828548037  0.02567950383887796  1.0000
  O   O3        1.0  0.7871807815579617  0.6284170741031101  0.48613997566019845  1.0000
  O   O4        1.0  0.5725828702391695  0.08252415853075457  0.8899916665324719  1.0000
  O   O5        1.0  0.555280041718935  0.3099289354083763  0.7274790954807242  1.0000
  O   O6        1.0  0.08121612033095738  0.687289058119847  0.7236731232412501  1.0000
  O   O7        1.0  0.19546155397652426  0.5350806299706101  0.33436084176282194  1.0000
  O   O8        1.0  0.7564359355674145  0.22576085679386235  0.211421197543682  1.0000
  O   O9        1.0  0.6506495139111405  0.8355598812276916  0.6470082589492302  1.0000
  O   O10       1.0  0.9432518818326836  0.2819510135385599  0.8093418418943152  1.0000
  O   O11       1.0  0.5307358340964841  0.8847442874325627  0.34177026172361535  1.0000
  O   O12       1.0  0.1513474015820084  0.11129015784009266  0.20523628933822988  1.0000
data_image53
_chemical_formula_structural       Na4C8N4O12
_chemical_formula_sum              "Na4 C8 N4 O12"
_cell_length_a       5.423166
_cell_length_b       3.6248270000000002
_cell_length_c       20.275782753631116
_cell_angle_alpha    88.79220736031418
_cell_angle_beta     90.0
_cell_angle_gamma    90.0

_space_group_name_H-M_alt    "P 1"
_space_group_IT_number       1

loop_
  _space_group_symop_operation_xyz
  'x, y, z'

loop_
  _atom_site_type_symbol
  _atom_site_label
  _atom_site_symmetry_multiplicity
  _atom_site_fract_x
  _atom_site_fract_y
  _atom_site_fract_z
  _atom_site_occupancy
  Na  Na1       1.0  0.7425805864237784  0.7736798518575141  0.8725295013277212  1.0000
  Na  Na2       1.0  0.9232849088721727  0.10403212904575576  0.5682415649077802  1.0000
  Na  Na3       1.0  0.472196160603275  0.8302310713994854  0.1941986193028338  1.0000
  Na  Na4       1.0  0.9372028957341133  0.9811432319518874  0.38822412030992165  1.0000
  C   C1        1.0  0.34703108468817934  0.3930633241752177  0.5957408075254119  1.0000
  C   C2        1.0  0.6974798859826501  0.6871696200195014  0.04714202786541177  1.0000
  C   C3        1.0  0.6038894888767232  0.4734500780099735  0.4985701543634406  1.0000
  C   C4        1.0  0.28104887632427844  0.11305603613325577  0.8935444643989258  1.0000
  C   C5        1.0  0.5091216480955821  0.003682878095669473  0.7175101818555154  1.0000
  C   C6        1.0  0.0909825230180552  0.6100836381762129  0.7672309170697607  1.0000
  C   C7        1.0  0.42817768671501205  0.4271910387679562  0.3828403705317489  1.0000
  C   C8        1.0  0.998069217849873  0.2671592462467627  0.11221670473519059  1.0000
  N   N1        1.0  0.5269069610663418  0.38004520408464026  0.5594910874572692  1.0000
  N   N2        1.0  0.8414628489907752  0.5436832752128962  0.08270311392121332  1.0000
  N   N3        1.0  0.39015363486002097  0.3994405392697954  0.4484566052401545  1.0000
  N   N4        1.0  0.11752967245634438  0.9486268982910652  0.9149466631478155  1.0000
  O   O1        1.0  0.15220810828329753  0.5608896830445196  0.5978037472078508  1.0000
  O   O2        1.0  0.5625189124318147  0.9001849353844626  0.01379130631145764  1.0000
  O   O3        1.0  0.7676743020873211  0.7073357966792465  0.4875132024577592  1.0000
  O   O4        1.0  0.48030123630227817  0.24125192791438566  0.9007022027157745  1.0000
  O   O5        1.0  0.4567101878938151  0.18092069669682664  0.7645005935094302  1.0000
  O   O6        1.0  0.15641687682113825  0.7079969483370854  0.7150902687241285  1.0000
  O   O7        1.0  0.2495891964363205  0.4743007931914654  0.3427168915344943  1.0000
  O   O8        1.0  0.905016468691073  0.14472639546051785  0.16647651535690947  1.0000
  O   O9        1.0  0.5740546202643648  0.8607178061755001  0.6656749387875908  1.0000
  O   O10       1.0  0.9895144235816804  0.489605687034538  0.8136684236507874  1.0000
  O   O11       1.0  0.6600517545285189  0.5212335325636456  0.374721290104458  1.0000
  O   O12       1.0  0.22071684495656355  0.3195124532896316  0.10715823864450501  1.0000
data_image54
_chemical_formula_structural       Na4C8N4O12
_chemical_formula_sum              "Na4 C8 N4 O12"
_cell_length_a       5.423166
_cell_length_b       3.6248270000000002
_cell_length_c       20.275782753631116
_cell_angle_alpha    88.79220736031418
_cell_angle_beta     90.0
_cell_angle_gamma    90.0

_space_group_name_H-M_alt    "P 1"
_space_group_IT_number       1

loop_
  _space_group_symop_operation_xyz
  'x, y, z'

loop_
  _atom_site_type_symbol
  _atom_site_label
  _atom_site_symmetry_multiplicity
  _atom_site_fract_x
  _atom_site_fract_y
  _atom_site_fract_z
  _atom_site_occupancy
  Na  Na1       1.0  0.6184824886449771  0.8647525998068879  0.9030480075674806  1.0000
  Na  Na2       1.0  0.24205806341558736  0.9934635978928777  0.5342179191323149  1.0000
  Na  Na3       1.0  0.48730216908041557  0.8299019495805463  0.15340565375790607  1.0000
  Na  Na4       1.0  0.8782132594106645  0.029659613169861765  0.37310109270669933  1.0000
  C   C1        1.0  0.4689952671894451  0.35856702823406095  0.5855729094928392  1.0000
  C   C2        1.0  0.7162344661484445  0.6899428265691376  0.050168204324667176  1.0000
  C   C3        1.0  0.6263130561948578  0.5554089487920679  0.4938099772386867  1.0000
  C   C4        1.0  0.15327309364421704  0.17701999753042164  0.9075717404191719  1.0000
  C   C5        1.0  0.5757592873250557  0.021652970573091013  0.7115498939824707  1.0000
  C   C6        1.0  0.09317931209555641  0.5469928478876243  0.7654186174590702  1.0000
  C   C7        1.0  0.32747448133857054  0.4677081751593188  0.3971895730096345  1.0000
  C   C8        1.0  0.9828616196468286  0.4435618289152221  0.12602280189574722  1.0000
  N   N1        1.0  0.6756646662233936  0.3308553889379604  0.5579885253544514  1.0000
  N   N2        1.0  0.9261233447558226  0.5496722572136403  0.058870540689256234  1.0000
  N   N3        1.0  0.39613473401288246  0.4329958795068257  0.4670055931779555  1.0000
  N   N4        1.0  0.9585949568346738  0.019658029915133435  0.9262782957983325  1.0000
  O   O1        1.0  0.3350721856946277  0.20933269911809038  0.6290847291019356  1.0000
  O   O2        1.0  0.51346630634031  0.7286690163113134  0.025219846468326645  1.0000
  O   O3        1.0  0.7955382605222105  0.6395906202076536  0.4542146930714542  1.0000
  O   O4        1.0  0.3663927723508536  0.3239814473970739  0.9051871627585023  1.0000
  O   O5        1.0  0.45839643143112885  0.07733909115920667  0.7550831040008334  1.0000
  O   O6        1.0  0.1617916489209783  0.6365531011642256  0.7123909107724814  1.0000
  O   O7        1.0  0.10432427518664246  0.5337874409690173  0.3880453194869705  1.0000
  O   O8        1.0  0.8494787044432351  0.19068689855887508  0.15614380853300294  1.0000
  O   O9        1.0  0.7318472404300738  0.926383045321861  0.6787430089560156  1.0000
  O   O10       1.0  0.957334898599218  0.4933924285317415  0.809290054808736  1.0000
  O   O11       1.0  0.49091406305835994  0.3943392937566814  0.3558000006214421  1.0000
  O   O12       1.0  0.13507614338530435  0.6450411284424296  0.1455149371585686  1.0000
data_image55
_chemical_formula_structural       Na4C8N4O12
_chemical_formula_sum              "Na4 C8 N4 O12"
_cell_length_a       5.423166
_cell_length_b       3.6248270000000002
_cell_length_c       20.275782753631116
_cell_angle_alpha    88.79220736031418
_cell_angle_beta     90.0
_cell_angle_gamma    90.0

_space_group_name_H-M_alt    "P 1"
_space_group_IT_number       1

loop_
  _space_group_symop_operation_xyz
  'x, y, z'

loop_
  _atom_site_type_symbol
  _atom_site_label
  _atom_site_symmetry_multiplicity
  _atom_site_fract_x
  _atom_site_fract_y
  _atom_site_fract_z
  _atom_site_occupancy
  Na  Na1       1.0  0.6360246654483239  0.7723316769134678  0.8825679230853247  1.0000
  Na  Na2       1.0  0.12312948332727566  0.8624076744856124  0.5299962583095547  1.0000
  Na  Na3       1.0  0.4808871144957439  0.9234963444517978  0.22315159939789778  1.0000
  Na  Na4       1.0  0.873537830514639  0.05891820096544642  0.3305136313571633  1.0000
  C   C1        1.0  0.5517280862789999  0.38848333458102613  0.5671585549525214  1.0000
  C   C2        1.0  0.8281595662274057  0.6095890638653292  0.029140611733650346  1.0000
  C   C3        1.0  0.7199847642170809  0.6274580412577946  0.46726579274233554  1.0000
  C   C4        1.0  0.1981422132817443  0.1659530347976499  0.9048302871862055  1.0000
  C   C5        1.0  0.5511960683540356  0.9037049343734861  0.7379332724498033  1.0000
  C   C6        1.0  0.9567839361628238  0.5347405649644223  0.78805862186885  1.0000
  C   C7        1.0  0.4472253624541428  0.5067909350610071  0.3916643805329631  1.0000
  C   C8        1.0  0.8312871650722222  0.4527941890727043  0.14242746070936127  1.0000
  N   N1        1.0  0.7214026650857586  0.5718050558869716  0.5440262770475388  1.0000
  N   N2        1.0  0.9726694942393446  0.6021889543054013  0.07891923637196419  1.0000
  N   N3        1.0  0.5093068238541807  0.4603592372245414  0.45638742558727785  1.0000
  N   N4        1.0  0.02253080372730687  0.06888527682900758  0.9302590071558239  1.0000
  O   O1        1.0  0.32692337491380885  0.31120321733148737  0.5777085710247652  1.0000
  O   O2        1.0  0.6765969524165734  0.6763087490532702  0.9863398294269683  1.0000
  O   O3        1.0  0.8663664766726609  0.8444945926824367  0.43947402044722256  1.0000
  O   O4        1.0  0.3599400733303232  0.33253272893377606  0.8744317445475901  1.0000
  O   O5        1.0  0.4648099579463949  0.8088684589053777  0.7856219163551456  1.0000
  O   O6        1.0  0.12488198075523127  0.5815362340919643  0.7524232622175095  1.0000
  O   O7        1.0  0.236975042423013  0.32921916597768  0.39130572577047423  1.0000
  O   O8        1.0  0.608762472372832  0.3585374607870005  0.14774035865607724  1.0000
  O   O9        1.0  0.664883632514575  0.006178146515140703  0.6921231199196256  1.0000
  O   O10       1.0  0.8198815711630156  0.38615114493901714  0.8239389238231557  1.0000
  O   O11       1.0  0.5996740420977097  0.6136656832249205  0.34666346413216426  1.0000
  O   O12       1.0  0.9727896203689262  0.42253472183670326  0.20011039698537933  1.0000
data_image56
_chemical_formula_structural       Na4C8N4O12
_chemical_formula_sum              "Na4 C8 N4 O12"
_cell_length_a       5.423166
_cell_length_b       3.6248270000000002
_cell_length_c       20.275782753631116
_cell_angle_alpha    88.79220736031418
_cell_angle_beta     90.0
_cell_angle_gamma    90.0

_space_group_name_H-M_alt    "P 1"
_space_group_IT_number       1

loop_
  _space_group_symop_operation_xyz
  'x, y, z'

loop_
  _atom_site_type_symbol
  _atom_site_label
  _atom_site_symmetry_multiplicity
  _atom_site_fract_x
  _atom_site_fract_y
  _atom_site_fract_z
  _atom_site_occupancy
  Na  Na1       1.0  0.7921015125356317  0.5102388363408945  0.8778851822239016  1.0000
  Na  Na2       1.0  0.0644603295495426  0.8303063644653677  0.5694128663357819  1.0000
  Na  Na3       1.0  0.2945245912037977  0.05012929998088844  0.26023090798016024  1.0000
  Na  Na4       1.0  0.9126295801228345  0.19813823391312135  0.3521780427640872  1.0000
  C   C1        1.0  0.47648707535566237  0.5406981421937738  0.5411846091968652  1.0000
  C   C2        1.0  0.6974369282588906  0.5634511657879255  0.08180988514206966  1.0000
  C   C3        1.0  0.7720266834700811  0.733022761741231  0.46083457184080323  1.0000
  C   C4        1.0  0.27023915993246783  0.30032185102059294  0.9229245287216534  1.0000
  C   C5        1.0  0.5367240203884986  0.9863867183948678  0.7160435895527169  1.0000
  C   C6        1.0  0.00799502669093699  0.18416067263653035  0.726402930040602  1.0000
  C   C7        1.0  0.5509137511507338  0.6614690349429442  0.36279901214787835  1.0000
  C   C8        1.0  0.7623236896681982  0.3853432983617169  0.18918357425749763  1.0000
  N   N1        1.0  0.6606925935222506  0.7188813836933179  0.5319018490324773  1.0000
  N   N2        1.0  0.850289315701608  0.42370482079673333  0.12429147358572834  1.0000
  N   N3        1.0  0.5919582670821542  0.7732279395367982  0.41946390732997685  1.0000
  N   N4        1.0  0.08047868257773283  0.26925846648283835  0.9527988804435789  1.0000
  O   O1        1.0  0.30057273576794924  0.36643563380731825  0.536173115716538  1.0000
  O   O2        1.0  0.5730216862658859  0.5758890386494411  0.035715495738702696  1.0000
  O   O3        1.0  0.9801260539982852  0.818006444446544  0.44998538741773136  1.0000
  O   O4        1.0  0.43258934614292954  0.34483108108231386  0.8878765699608704  1.0000
  O   O5        1.0  0.5339752138620072  0.873861413071116  0.7691586802641589  1.0000
  O   O6        1.0  0.936366008076914  0.40543225050114495  0.6875917057960254  1.0000
  O   O7        1.0  0.35836389757803755  0.4158437788672665  0.3585023201689619  1.0000
  O   O8        1.0  0.52966321732023  0.488118943093812  0.1953364963922546  1.0000
  O   O9        1.0  0.5305990965158895  0.07754833365127123  0.6632823971403259  1.0000
  O   O10       1.0  0.09073345585007608  0.9471097925723415  0.7636012143551918  1.0000
  O   O11       1.0  0.6785957931319175  0.6146236067200782  0.3071492755851739  1.0000
  O   O12       1.0  0.8938040929890232  0.23882437103813947  0.23284498997039246  1.0000
data_image57
_chemical_formula_structural       Na4C8N4O12
_chemical_formula_sum              "Na4 C8 N4 O12"
_cell_length_a       5.423166
_cell_length_b       3.6248270000000002
_cell_length_c       20.275782753631116
_cell_angle_alpha    88.79220736031418
_cell_angle_beta     90.0
_cell_angle_gamma    90.0

_space_group_name_H-M_alt    "P 1"
_space_group_IT_number       1

loop_
  _space_group_symop_operation_xyz
  'x, y, z'

loop_
  _atom_site_type_symbol
  _atom_site_label
  _atom_site_symmetry_multiplicity
  _atom_site_fract_x
  _atom_site_fract_y
  _atom_site_fract_z
  _atom_site_occupancy
  Na  Na1       1.0  0.7378735861886674  0.6905709587644375  0.9012572499417764  1.0000
  Na  Na2       1.0  0.11997160817153243  0.8967044002417596  0.5975638656842291  1.0000
  Na  Na3       1.0  0.38085459843045144  0.03777429500500462  0.2167191722367475  1.0000
  Na  Na4       1.0  0.02323421267323278  0.18731211109292356  0.392243783424216  1.0000
  C   C1        1.0  0.4076944437279207  0.3727668090636811  0.5471416004493606  1.0000
  C   C2        1.0  0.6922478691762299  0.5057476757505455  0.07698016552792408  1.0000
  C   C3        1.0  0.6479749103763002  0.7043657388730044  0.4695897251274004  1.0000
  C   C4        1.0  0.24048049012969752  0.10832023347780217  0.9017040499003695  1.0000
  C   C5        1.0  0.5272180544876107  0.9282056088274616  0.6975283834281468  1.0000
  C   C6        1.0  0.999480385701377  0.2973710002553198  0.7230041388009327  1.0000
  C   C7        1.0  0.5265656224307862  0.7455698642729635  0.35756958142096945  1.0000
  C   C8        1.0  0.7778901401544634  0.3397964129134379  0.20271825697561124  1.0000
  N   N1        1.0  0.6131882647371959  0.5293824927866875  0.5411194271388042  1.0000
  N   N2        1.0  0.7898199066509397  0.349164417430057  0.12429700727009907  1.0000
  N   N3        1.0  0.4636268346966437  0.7359375395164576  0.4348218891530079  1.0000
  N   N4        1.0  0.011511412001214305  0.10868947429297982  0.9114828183792708  1.0000
  O   O1        1.0  0.199250274219696  0.3737058762747101  0.5442370612112079  1.0000
  O   O2        1.0  0.6425855270711435  0.686986279355839  0.030026803477940733  1.0000
  O   O3        1.0  0.9044451469813335  0.7163506695785327  0.4586050277834395  1.0000
  O   O4        1.0  0.4498221866352362  0.1617746036033234  0.8879689255857002  1.0000
  O   O5        1.0  0.6060253040362746  0.7054453871384805  0.739526854797908  1.0000
  O   O6        1.0  0.985953583692891  0.3975967277741397  0.6640033568460915  1.0000
  O   O7        1.0  0.3542398995601187  0.5907687866981188  0.3299688981191119  1.0000
  O   O8        1.0  0.5890347597257625  0.507439490370836  0.21230878276094742  1.0000
  O   O9        1.0  0.49702275919647854  0.197064560747366  0.6650865372005441  1.0000
  O   O10       1.0  0.08423573272284068  0.10624880084726773  0.7654774930860903  1.0000
  O   O11       1.0  0.7237742433014183  0.8602115516003933  0.33462179308934  1.0000
  O   O12       1.0  0.9752645554537938  0.21065084474349227  0.2203344656076842  1.0000
data_image58
_chemical_formula_structural       Na4C8N4O12
_chemical_formula_sum              "Na4 C8 N4 O12"
_cell_length_a       5.423166
_cell_length_b       3.6248270000000002
_cell_length_c       20.275782753631116
_cell_angle_alpha    88.79220736031418
_cell_angle_beta     90.0
_cell_angle_gamma    90.0

_space_group_name_H-M_alt    "P 1"
_space_group_IT_number       1

loop_
  _space_group_symop_operation_xyz
  'x, y, z'

loop_
  _atom_site_type_symbol
  _atom_site_label
  _atom_site_symmetry_multiplicity
  _atom_site_fract_x
  _atom_site_fract_y
  _atom_site_fract_z
  _atom_site_occupancy
  Na  Na1       1.0  0.5659178062847379  0.4685750686651762  0.9396057640177957  1.0000
  Na  Na2       1.0  0.2263199740372792  0.8072073231700047  0.5990472208021935  1.0000
  Na  Na3       1.0  0.3277228626646784  0.9556767498169202  0.20286575687266373  1.0000
  Na  Na4       1.0  0.08584062871010723  0.21109028812163844  0.36484689978693513  1.0000
  C   C1        1.0  0.33122346998381225  0.25028782984303  0.5164117133137189  1.0000
  C   C2        1.0  0.82220672583819  0.6947029753109977  0.038168003365195435  1.0000
  C   C3        1.0  0.6503639093230811  0.5700555482854284  0.4596088550095468  1.0000
  C   C4        1.0  0.16326100903558216  0.014918104762408957  0.9040012333480669  1.0000
  C   C5        1.0  0.5696346959702372  0.7465695214325146  0.7631740335550908  1.0000
  C   C6        1.0  0.08702160214414456  0.34370893209515696  0.7295853966805584  1.0000
  C   C7        1.0  0.4893141194137055  0.9310414951719034  0.35397841707930044  1.0000
  C   C8        1.0  0.8413211261219067  0.49916230696728103  0.18068615090052081  1.0000
  N   N1        1.0  0.5646123130735907  0.35599158115242346  0.5105458088102466  1.0000
  N   N2        1.0  0.9447820037047594  0.5751049044964702  0.08540025251877781  1.0000
  N   N3        1.0  0.4568625301101581  0.7913619810769614  0.4157941959103977  1.0000
  N   N4        1.0  0.9476221443860684  0.03675852878241903  0.9269816665812123  1.0000
  O   O1        1.0  0.12479725013862285  0.2144853357335914  0.5355451707640568  1.0000
  O   O2        1.0  0.6356330677461701  0.871952875937585  0.011554396752392782  1.0000
  O   O3        1.0  0.8816430231963965  0.5962531555590808  0.4510402158209534  1.0000
  O   O4        1.0  0.36897002886930597  0.12138152741478803  0.8874507502651927  1.0000
  O   O5        1.0  0.6070197055915146  0.5497746709666878  0.8063818927149922  1.0000
  O   O6        1.0  0.9852347899349799  0.5395823023033164  0.6906821604021164  1.0000
  O   O7        1.0  0.3266460641839553  0.9236765232261903  0.3087047496307218  1.0000
  O   O8        1.0  0.6238328994210035  0.5374443746427096  0.1900652390104054  1.0000
  O   O9        1.0  0.5820317046795389  0.9769738923384224  0.7157335906991212  1.0000
  O   O10       1.0  0.06543063100218172  0.2041718670144712  0.7877006065370314  1.0000
  O   O11       1.0  0.7183318190617669  0.007442870675621549  0.3360552302038524  1.0000
  O   O12       1.0  0.03968252100713767  0.43796816924104975  0.22024679897138058  1.0000
data_image59
_chemical_formula_structural       Na4C8N4O12
_chemical_formula_sum              "Na4 C8 N4 O12"
_cell_length_a       5.423166
_cell_length_b       3.6248270000000002
_cell_length_c       20.275782753631116
_cell_angle_alpha    88.79220736031418
_cell_angle_beta     90.0
_cell_angle_gamma    90.0

_space_group_name_H-M_alt    "P 1"
_space_group_IT_number       1

loop_
  _space_group_symop_operation_xyz
  'x, y, z'

loop_
  _atom_site_type_symbol
  _atom_site_label
  _atom_site_symmetry_multiplicity
  _atom_site_fract_x
  _atom_site_fract_y
  _atom_site_fract_z
  _atom_site_occupancy
  Na  Na1       1.0  0.5802476068983051  0.40793686161620135  0.9573594225064999  1.0000
  Na  Na2       1.0  0.3440237340529456  0.5767240569308332  0.626400851902182  1.0000
  Na  Na3       1.0  0.29999830339428063  0.827858732505789  0.17258888697857078  1.0000
  Na  Na4       1.0  0.040069471194131845  0.7824972611123244  0.3359255954250854  1.0000
  C   C1        1.0  0.42913146289111626  0.3202261556530934  0.5147000693179428  1.0000
  C   C2        1.0  0.7210877345564961  0.8049168819873773  0.06146121843622354  1.0000
  C   C3        1.0  0.6099168462260267  0.6128448740771004  0.4324230779589509  1.0000
  C   C4        1.0  0.1143738645411605  0.9689851339321676  0.9393294704149264  1.0000
  C   C5        1.0  0.6787401007643326  0.7148096502504938  0.7892658896570355  1.0000
  C   C6        1.0  0.048310972522974005  0.3426895968221926  0.7445241625724012  1.0000
  C   C7        1.0  0.5008074137582208  0.9728378778886062  0.3137782152714047  1.0000
  C   C8        1.0  0.8217735010502867  0.36653871717701425  0.1708306480463646  1.0000
  N   N1        1.0  0.40563720100256945  0.5705605145809749  0.46903813038773884  1.0000
  N   N2        1.0  0.9338700282100807  0.7113116894599976  0.0499428011447125  1.0000
  N   N3        1.0  0.538664157613288  0.7606118683204948  0.37254331904209304  1.0000
  N   N4        1.0  0.8882959975224698  0.039700467043434884  0.9244055401431431  1.0000
  O   O1        1.0  0.33327322895323824  0.17949414845031808  0.565427111062467  1.0000
  O   O2        1.0  0.5139447288471968  0.7504481176382589  0.0856166983543385  1.0000
  O   O3        1.0  0.8292846793325928  0.5623471290370138  0.443763039878084  1.0000
  O   O4        1.0  0.304961884252297  0.9037746696833083  0.9688538979200823  1.0000
  O   O5        1.0  0.6822334839330887  0.4874117614129154  0.8286517459967743  1.0000
  O   O6        1.0  0.9746099154249341  0.4528005970304365  0.6898606528013849  1.0000
  O   O7        1.0  0.3060149358222005  0.1806946850084159  0.2931565450579793  1.0000
  O   O8        1.0  0.6035116475501744  0.24649247023078613  0.17968481578036105  1.0000
  O   O9        1.0  0.5700014803405998  0.8953090304378692  0.7447160228313842  1.0000
  O   O10       1.0  0.16276227206709937  0.30340670535306646  0.7912961077425807  1.0000
  O   O11       1.0  0.7181662505992863  0.022788989429483708  0.2813845217969287  1.0000
  O   O12       1.0  0.028726015215902418  0.4536102343884738  0.18185111789693367  1.0000
data_image60
_chemical_formula_structural       Na4C8N4O12
_chemical_formula_sum              "Na4 C8 N4 O12"
_cell_length_a       5.423166
_cell_length_b       3.6248270000000002
_cell_length_c       20.275782753631116
_cell_angle_alpha    88.79220736031418
_cell_angle_beta     90.0
_cell_angle_gamma    90.0

_space_group_name_H-M_alt    "P 1"
_space_group_IT_number       1

loop_
  _space_group_symop_operation_xyz
  'x, y, z'

loop_
  _atom_site_type_symbol
  _atom_site_label
  _atom_site_symmetry_multiplicity
  _atom_site_fract_x
  _atom_site_fract_y
  _atom_site_fract_z
  _atom_site_occupancy
  Na  Na1       1.0  0.6711275913536292  0.29829193970958334  0.972951875049542  1.0000
  Na  Na2       1.0  0.3566913143188816  0.7188891478628445  0.6215170534643756  1.0000
  Na  Na3       1.0  0.3430539548749416  0.7929537249610024  0.20576800544753315  1.0000
  Na  Na4       1.0  0.039472646160223945  0.661540413800333  0.3373396344083168  1.0000
  C   C1        1.0  0.3347073884096572  0.26860698215285095  0.5122845312076292  1.0000
  C   C2        1.0  0.6136972700166994  0.10073358627203499  0.08480448138908536  1.0000
  C   C3        1.0  0.5017194289897229  0.6082552808670469  0.4219084487502421  1.0000
  C   C4        1.0  0.16410542377969128  0.9204326170752403  0.9162904346421035  1.0000
  C   C5        1.0  0.6158016716271699  0.736585426474469  0.7892842375558331  1.0000
  C   C6        1.0  0.08891636670223879  0.25383539318103887  0.7279534202230896  1.0000
  C   C7        1.0  0.4777851824447247  0.891285331714266  0.32092555828871777  1.0000
  C   C8        1.0  0.9116519121785557  0.3422471232340609  0.15372642521932525  1.0000
  N   N1        1.0  0.2675097200042867  0.46333857354462205  0.47305212449825107  1.0000
  N   N2        1.0  0.8148162782717474  0.26119956222660023  0.08360132658488473  1.0000
  N   N3        1.0  0.4282844917277324  0.889227538139276  0.3911148761693917  1.0000
  N   N4        1.0  0.9372995914454152  0.8953700100850914  0.9362794091224274  1.0000
  O   O1        1.0  0.46518380467324566  0.11444430130169425  0.555389990790372  1.0000
  O   O2        1.0  0.45158479094638526  0.8800512190506009  0.0740825624452881  1.0000
  O   O3        1.0  0.6760448157346388  0.37444507312395037  0.4188607953083825  1.0000
  O   O4        1.0  0.3821930149686827  0.9091421676537127  0.922112117829428  1.0000
  O   O5        1.0  0.6690205668184888  0.5790681686439375  0.838886470538598  1.0000
  O   O6        1.0  0.13408756103166808  0.4487286227367697  0.6774129456037633  1.0000
  O   O7        1.0  0.30912649882215476  0.09033799960005262  0.29288857320057327  1.0000
  O   O8        1.0  0.7555405898841522  0.5391731607009429  0.18212680015069826  1.0000
  O   O9        1.0  0.5846721507769073  0.9481677349413236  0.7444663829566924  1.0000
  O   O10       1.0  0.0700756017419728  0.2889927888426156  0.7866490054315717  1.0000
  O   O11       1.0  0.6282144859058456  0.7205661843354222  0.2885101043284967  1.0000
  O   O12       1.0  0.1337783802774339  0.33344243535884766  0.1770233196305416  1.0000
data_image61
_chemical_formula_structural       Na4C8N4O12
_chemical_formula_sum              "Na4 C8 N4 O12"
_cell_length_a       5.423166
_cell_length_b       3.6248270000000002
_cell_length_c       20.275782753631116
_cell_angle_alpha    88.79220736031418
_cell_angle_beta     90.0
_cell_angle_gamma    90.0

_space_group_name_H-M_alt    "P 1"
_space_group_IT_number       1

loop_
  _space_group_symop_operation_xyz
  'x, y, z'

loop_
  _atom_site_type_symbol
  _atom_site_label
  _atom_site_symmetry_multiplicity
  _atom_site_fract_x
  _atom_site_fract_y
  _atom_site_fract_z
  _atom_site_occupancy
  Na  Na1       1.0  0.631148633622794  0.3955189087975115  0.960923312945223  1.0000
  Na  Na2       1.0  0.2825853812479835  0.7695463568673134  0.6551705836244781  1.0000
  Na  Na3       1.0  0.4602713437933123  0.7595808660492281  0.19367585165524126  1.0000
  Na  Na4       1.0  0.03668289810735925  0.5240689525968378  0.28377979550638205  1.0000
  C   C1        1.0  0.28752145439872034  0.2964272551952578  0.5461956972855464  1.0000
  C   C2        1.0  0.6446969359795163  0.06426442731286597  0.08487480756381549  1.0000
  C   C3        1.0  0.41156811637913693  0.6149241849729381  0.42375604985302046  1.0000
  C   C4        1.0  0.20508855914441582  0.9507502774884475  0.9364164310125679  1.0000
  C   C5        1.0  0.6368114642475907  0.7464338775330402  0.7797275811794829  1.0000
  C   C6        1.0  0.06537507035182588  0.08895288576505789  0.7438843104223701  1.0000
  C   C7        1.0  0.5307581416672685  0.9748997221311098  0.33638379664760865  1.0000
  C   C8        1.0  0.9384749096948223  0.41197880924739416  0.12847129931766646  1.0000
  N   N1        1.0  0.18094267065071434  0.4633071503267332  0.4964445944842602  1.0000
  N   N2        1.0  0.8273120930290276  0.23829647600074022  0.07750944008375038  1.0000
  N   N3        1.0  0.3007373375676896  0.7597249009794109  0.376604373092224  1.0000
  N   N4        1.0  0.06975926004336452  0.6881759834939185  0.9559703057733658  1.0000
  O   O1        1.0  0.410163900904302  0.21201037461632777  0.5871547074205312  1.0000
  O   O2        1.0  0.49390102268092695  0.8972663058843462  0.05394664514949987  1.0000
  O   O3        1.0  0.6064992076101978  0.5195359750569891  0.4494829108392736  1.0000
  O   O4        1.0  0.3626295614885959  0.08522989755365518  0.899792876014301  1.0000
  O   O5        1.0  0.6881329940845832  0.6346669429822461  0.8315244729337943  1.0000
  O   O6        1.0  0.0992664988548504  0.22050461913387398  0.6887790684036542  1.0000
  O   O7        1.0  0.3896309545403515  0.15079997184084926  0.2908250615312785  1.0000
  O   O8        1.0  0.800766711896875  0.6070351981136028  0.16365414644047882  1.0000
  O   O9        1.0  0.5551042867937307  0.8036408844946644  0.724973253647399  1.0000
  O   O10       1.0  0.9811416220717186  0.08103358531188642  0.7981992793232316  1.0000
  O   O11       1.0  0.7561858128484678  0.9546458774543466  0.3418295917019131  1.0000
  O   O12       1.0  0.16881225488218188  0.3907973912600138  0.132328108881987  1.0000
data_image62
_chemical_formula_structural       Na4C8N4O12
_chemical_formula_sum              "Na4 C8 N4 O12"
_cell_length_a       5.423166
_cell_length_b       3.6248270000000002
_cell_length_c       20.275782753631116
_cell_angle_alpha    88.79220736031418
_cell_angle_beta     90.0
_cell_angle_gamma    90.0

_space_group_name_H-M_alt    "P 1"
_space_group_IT_number       1

loop_
  _space_group_symop_operation_xyz
  'x, y, z'

loop_
  _atom_site_type_symbol
  _atom_site_label
  _atom_site_symmetry_multiplicity
  _atom_site_fract_x
  _atom_site_fract_y
  _atom_site_fract_z
  _atom_site_occupancy
  Na  Na1       1.0  0.6101792572977414  0.6184659955510914  0.9451565013740001  1.0000
  Na  Na2       1.0  0.2809060946345478  0.7350671070072272  0.6260094881209647  1.0000
  Na  Na3       1.0  0.4079991592689535  0.6889002278988074  0.20320969435680974  1.0000
  Na  Na4       1.0  0.0334239968293486  0.4403995189716853  0.3168306272852415  1.0000
  C   C1        1.0  0.2656645538125796  0.2898629825643715  0.5168065631459439  1.0000
  C   C2        1.0  0.7691259563399078  0.040787637607310856  0.07724515910637919  1.0000
  C   C3        1.0  0.4682231013718767  0.554114554717794  0.41313487517117187  1.0000
  C   C4        1.0  0.17967541152737287  0.03048847493263418  0.9316918830937978  1.0000
  C   C5        1.0  0.566326430753415  0.6967679661116477  0.7626051745855242  1.0000
  C   C6        1.0  0.08874280880176677  0.19341355328003496  0.761035378765593  1.0000
  C   C7        1.0  0.504169628000133  0.043664088151513125  0.33027324569061256  1.0000
  C   C8        1.0  0.9024061093413585  0.3185428342965968  0.17117111427530346  1.0000
  N   N1        1.0  0.2384173381785206  0.43306814684072203  0.459341361929387  1.0000
  N   N2        1.0  0.9334010832685424  0.26789489269328726  0.0877905325200552  1.0000
  N   N3        1.0  0.41678979108747094  0.8724577018286821  0.381160450377649  1.0000
  N   N4        1.0  0.958985609197394  0.938442158859469  0.93704758742013  1.0000
  O   O1        1.0  0.4126968778548029  0.13687776296172727  0.5534603644435475  1.0000
  O   O2        1.0  0.5790035165866279  0.9037200131024068  0.06500692262975805  1.0000
  O   O3        1.0  0.6475210281547188  0.36623379808724044  0.43640907593126904  1.0000
  O   O4        1.0  0.40214167845377724  0.07117231086287767  0.9254462970517384  1.0000
  O   O5        1.0  0.36718086659430277  0.6647477547106042  0.7855143372935507  1.0000
  O   O6        1.0  0.0825632455891323  0.19009094889668265  0.7015385964910295  1.0000
  O   O7        1.0  0.36697473692367627  0.20133612674039303  0.2867573280510045  1.0000
  O   O8        1.0  0.7531133361506698  0.47297662264525403  0.20537610766929193  1.0000
  O   O9        1.0  0.7635538843082461  0.6399639125699957  0.7252170939454777  1.0000
  O   O10       1.0  0.060818388469061624  0.3252798017377325  0.8131655777523942  1.0000
  O   O11       1.0  0.7432130782471326  0.06719129026251003  0.32782419687876435  1.0000
  O   O12       1.0  0.07923019819306677  0.1361826107722781  0.18795126169479368  1.0000
data_image63
_chemical_formula_structural       Na4C8N4O12
_chemical_formula_sum              "Na4 C8 N4 O12"
_cell_length_a       5.423166
_cell_length_b       3.6248270000000002
_cell_length_c       20.275782753631116
_cell_angle_alpha    88.79220736031418
_cell_angle_beta     90.0
_cell_angle_gamma    90.0

_space_group_name_H-M_alt    "P 1"
_space_group_IT_number       1

loop_
  _space_group_symop_operation_xyz
  'x, y, z'

loop_
  _atom_site_type_symbol
  _atom_site_label
  _atom_site_symmetry_multiplicity
  _atom_site_fract_x
  _atom_site_fract_y
  _atom_site_fract_z
  _atom_site_occupancy
  Na  Na1       1.0  0.5658494040409376  0.6172701045211628  0.9681924086101578  1.0000
  Na  Na2       1.0  0.005084073145033422  0.7257294835531154  0.6209549978060627  1.0000
  Na  Na3       1.0  0.4637299817099494  0.7539399013994781  0.21715411711768218  1.0000
  Na  Na4       1.0  0.99452171471375  0.400950679649024  0.3577790341527028  1.0000
  C   C1        1.0  0.26163217786914855  0.329729809504858  0.5199237852658039  1.0000
  C   C2        1.0  0.803872858394395  0.04817205248990353  0.0541789668889876  1.0000
  C   C3        1.0  0.5221493936207899  0.7142198415583236  0.429850858324611  1.0000
  C   C4        1.0  0.0956927476470093  0.17744762624997867  0.9351793348518259  1.0000
  C   C5        1.0  0.6008522227340619  0.6040237980472676  0.7303931949480308  1.0000
  C   C6        1.0  0.0667079243202997  0.1228015297288354  0.7422277584495858  1.0000
  C   C7        1.0  0.6188215988959351  0.996064688108288  0.3229065361996621  1.0000
  C   C8        1.0  0.9447627275057054  0.18620043622143445  0.17865040352419254  1.0000
  N   N1        1.0  0.3660369058772534  0.4945189622190924  0.47550301705673864  1.0000
  N   N2        1.0  0.9799917811879797  0.21016171372763592  0.0777120542862415  1.0000
  N   N3        1.0  0.475157008224909  0.851101070481936  0.37067073996543015  1.0000
  N   N4        1.0  0.8907079991412106  0.10730405478509097  0.952695511564859  1.0000
  O   O1        1.0  0.16268963385055574  0.20149341790672293  0.5689382244597525  1.0000
  O   O2        1.0  0.6073036733701792  0.8836344212302063  0.0679509597682535  1.0000
  O   O3        1.0  0.7382924510698419  0.7282885628102324  0.4441704623121096  1.0000
  O   O4        1.0  0.3082101484748216  0.2787081882573714  0.9332827742495541  1.0000
  O   O5        1.0  0.5934877715932019  0.5400353385993909  0.7910835286470518  1.0000
  O   O6        1.0  0.2210913042153695  0.13169768028214124  0.6934550183014738  1.0000
  O   O7        1.0  0.5055301188193555  0.24327133317187477  0.28898094081784953  1.0000
  O   O8        1.0  0.7651655655427443  0.35730156678880637  0.19520853673280836  1.0000
  O   O9        1.0  0.6098431824874523  0.7177347493047046  0.6694585955675868  1.0000
  O   O10       1.0  0.9436632032859822  0.989178970772265  0.7857024399048773  1.0000
  O   O11       1.0  0.840616912157932  0.9172782611422293  0.32020495003428334  1.0000
  O   O12       1.0  0.1271779677164359  0.02323390864023378  0.17880270193358846  1.0000
data_image64
_chemical_formula_structural       Na4C8N4O12
_chemical_formula_sum              "Na4 C8 N4 O12"
_cell_length_a       5.423166
_cell_length_b       3.6248270000000002
_cell_length_c       20.275782753631116
_cell_angle_alpha    88.79220736031418
_cell_angle_beta     90.0
_cell_angle_gamma    90.0

_space_group_name_H-M_alt    "P 1"
_space_group_IT_number       1

loop_
  _space_group_symop_operation_xyz
  'x, y, z'

loop_
  _atom_site_type_symbol
  _atom_site_label
  _atom_site_symmetry_multiplicity
  _atom_site_fract_x
  _atom_site_fract_y
  _atom_site_fract_z
  _atom_site_occupancy
  Na  Na1       1.0  0.5333382133608584  0.7034304744157538  0.9561437128896121  1.0000
  Na  Na2       1.0  0.7416706271005904  0.8850821359018829  0.5494468684216794  1.0000
  Na  Na3       1.0  0.6335580947720004  0.6513569311001378  0.20439242932259388  1.0000
  Na  Na4       1.0  0.1287053756486085  0.6471454110285055  0.3730622116991872  1.0000
  C   C1        1.0  0.22890927945577463  0.43234213480064265  0.5321859795848053  1.0000
  C   C2        1.0  0.8762144249145425  0.8297452934677034  0.0792604909535859  1.0000
  C   C3        1.0  0.5482186256712536  0.6848403568007737  0.4670286312720917  1.0000
  C   C4        1.0  0.05328521811851594  0.14425524476682172  0.921689693037461  1.0000
  C   C5        1.0  0.5486339480607575  0.5962278166623275  0.7152403652446728  1.0000
  C   C6        1.0  0.002996521998652746  0.9496082134582726  0.7345433500476273  1.0000
  C   C7        1.0  0.5509232390229165  0.008607080876753548  0.3668845129145111  1.0000
  C   C8        1.0  0.1480589655093143  0.1677901185944961  0.1438186736278103  1.0000
  N   N1        1.0  0.4025090835160046  0.6529330624539196  0.527235760705078  1.0000
  N   N2        1.0  0.09645539515265789  0.9550806093923361  0.08510898498221997  1.0000
  N   N3        1.0  0.4419849699931775  0.9287919827769174  0.4306991253161986  1.0000
  N   N4        1.0  0.8733920944782575  0.08773630556360956  0.9597586516409545  1.0000
  O   O1        1.0  0.04642976178221075  0.32973955762387774  0.56205957954706  1.0000
  O   O2        1.0  0.6657358016600137  0.8813294641256335  0.06569166962335338  1.0000
  O   O3        1.0  0.7700096746429652  0.5586943237884996  0.45920683266305595  1.0000
  O   O4        1.0  0.2617669887849495  0.22070257485043765  0.8986099798611656  1.0000
  O   O5        1.0  0.4909986984813325  0.5982072782937262  0.7672828288729509  1.0000
  O   O6        1.0  0.9368248471527436  0.14965038744502612  0.6929707677400427  1.0000
  O   O7        1.0  0.38994042498102977  0.1944144267024952  0.33216446688056184  1.0000
  O   O8        1.0  0.9210678625987115  0.1789921693159468  0.1692610928103101  1.0000
  O   O9        1.0  0.6524871635648521  0.5807259901969798  0.6673615673424507  1.0000
  O   O10       1.0  0.04305595499525028  0.7507191058111784  0.7895188114349587  1.0000
  O   O11       1.0  0.7659407813420632  0.024038179424357597  0.346849147603828  1.0000
  O   O12       1.0  0.3434700286379946  0.29612260585017003  0.15668727985783976  1.0000
data_image65
_chemical_formula_structural       Na4C8N4O12
_chemical_formula_sum              "Na4 C8 N4 O12"
_cell_length_a       5.423166
_cell_length_b       3.6248270000000002
_cell_length_c       20.275782753631116
_cell_angle_alpha    88.79220736031418
_cell_angle_beta     90.0
_cell_angle_gamma    90.0

_space_group_name_H-M_alt    "P 1"
_space_group_IT_number       1

loop_
  _space_group_symop_operation_xyz
  'x, y, z'

loop_
  _atom_site_type_symbol
  _atom_site_label
  _atom_site_symmetry_multiplicity
  _atom_site_fract_x
  _atom_site_fract_y
  _atom_site_fract_z
  _atom_site_occupancy
  Na  Na1       1.0  0.5905974307503781  0.7029629892303084  0.9598585288480314  1.0000
  Na  Na2       1.0  0.7313843121732498  0.11190524501788235  0.5634207332096115  1.0000
  Na  Na3       1.0  0.6693375799548813  0.7190440619034489  0.18310043727437733  1.0000
  Na  Na4       1.0  0.9856897264901755  0.5384658341481243  0.33612471608190664  1.0000
  C   C1        1.0  0.19515792773772728  0.6044245638134693  0.549424588001052  1.0000
  C   C2        1.0  0.052205993982335164  0.9205699501739595  0.045962185007443646  1.0000
  C   C3        1.0  0.5176632458109178  0.5949515358436308  0.45929599439710633  1.0000
  C   C4        1.0  0.10278515525267973  0.24227154936620243  0.9236668445562041  1.0000
  C   C5        1.0  0.47923721092204086  0.6711954496356127  0.7355925135519996  1.0000
  C   C6        1.0  0.9023581531023782  0.8786019138343343  0.7753690070239831  1.0000
  C   C7        1.0  0.41780070628487576  0.8466903542185701  0.3503461402058157  1.0000
  C   C8        1.0  0.26519425207842295  0.16855696354015404  0.13533246197693555  1.0000
  N   N1        1.0  0.3091121515355455  0.489423240269798  0.5008794570122944  1.0000
  N   N2        1.0  0.19922677728752536  0.13420173534105462  0.07229338729748735  1.0000
  N   N3        1.0  0.40184623272948095  0.6171853649046575  0.3996312483296999  1.0000
  N   N4        1.0  0.9011632184972613  0.32442500332812374  0.9430735481947632  1.0000
  O   O1        1.0  0.04484406351471575  0.5164659863299161  0.5994036095584139  1.0000
  O   O2        1.0  0.9027008290304402  0.688007163818984  0.04040050010600349  1.0000
  O   O3        1.0  0.7224548369611656  0.5681048185727294  0.47310943590277754  1.0000
  O   O4        1.0  0.33008907345977784  0.18473635121013587  0.9205296569512509  1.0000
  O   O5        1.0  0.42449838733158196  0.9077241707289969  0.7787439433928177  1.0000
  O   O6        1.0  0.9356925327127107  0.6958076397533401  0.7290577218469654  1.0000
  O   O7        1.0  0.2525650759917636  0.0329605994844131  0.31847336948848665  1.0000
  O   O8        1.0  0.11260986001241435  0.19344092877054625  0.1800933702633359  1.0000
  O   O9        1.0  0.5219204403443933  0.4789128660659334  0.6940047121963177  1.0000
  O   O10       1.0  0.9676705014220441  0.10899048094565655  0.8176526911549457  1.0000
  O   O11       1.0  0.6774975553152811  0.8834255980790404  0.34003786694458304  1.0000
  O   O12       1.0  0.50550145631696  0.20400231616214848  0.14025078253446635  1.0000
data_image66
_chemical_formula_structural       Na4C8N4O12
_chemical_formula_sum              "Na4 C8 N4 O12"
_cell_length_a       5.423166
_cell_length_b       3.6248270000000002
_cell_length_c       20.275782753631116
_cell_angle_alpha    88.79220736031418
_cell_angle_beta     90.0
_cell_angle_gamma    90.0

_space_group_name_H-M_alt    "P 1"
_space_group_IT_number       1

loop_
  _space_group_symop_operation_xyz
  'x, y, z'

loop_
  _atom_site_type_symbol
  _atom_site_label
  _atom_site_symmetry_multiplicity
  _atom_site_fract_x
  _atom_site_fract_y
  _atom_site_fract_z
  _atom_site_occupancy
  Na  Na1       1.0  0.5513697391936179  0.6958642670196444  0.9335070617586078  1.0000
  Na  Na2       1.0  0.8097525631595206  0.19724990754773408  0.5452746095571157  1.0000
  Na  Na3       1.0  0.8456160142657804  0.8654152896539524  0.17463130754092546  1.0000
  Na  Na4       1.0  0.8464083602597808  0.16607011580555775  0.36492704909437657  1.0000
  C   C1        1.0  0.24160245687599877  0.7186556507943773  0.5367786406982744  1.0000
  C   C2        1.0  0.1342247024819665  0.8751110749037214  0.05751094695483383  1.0000
  C   C3        1.0  0.5089128101116605  0.6070781553368813  0.44842680432480464  1.0000
  C   C4        1.0  0.008692085697520335  0.2728828884886876  0.9168253996483323  1.0000
  C   C5        1.0  0.5434864081252017  0.615408504482982  0.7812068208587993  1.0000
  C   C6        1.0  0.9706239709298273  0.9828074162199104  0.7611799009102209  1.0000
  C   C7        1.0  0.3690366395324419  0.6379859718089775  0.3288825758222642  1.0000
  C   C8        1.0  0.28913832795939265  0.21228891626058854  0.15488527854549658  1.0000
  N   N1        1.0  0.22435099034646608  0.4278525816644798  0.49735773318725685  1.0000
  N   N2        1.0  0.2879731929854007  0.017402242456781458  0.09427146862757119  1.0000
  N   N3        1.0  0.517977326135667  0.4960978769351416  0.38576212620031347  1.0000
  N   N4        1.0  0.8009384387277704  0.2688283530483879  0.9372911027906377  1.0000
  O   O1        1.0  0.11152145603529887  0.8077468334719109  0.5886418532476261  1.0000
  O   O2        1.0  0.9521233227096646  0.8279816481805833  0.0276583376476085  1.0000
  O   O3        1.0  0.6029915905277372  0.8498548543193298  0.47316725132494464  1.0000
  O   O4        1.0  0.2253219862651671  0.3380244522731013  0.9081358798911782  1.0000
  O   O5        1.0  0.5464596906910144  0.7315685419319671  0.8375739145814705  1.0000
  O   O6        1.0  0.9910384267346318  0.7665076037599894  0.7164289068722185  1.0000
  O   O7        1.0  0.12437717799999536  0.6889218563761891  0.3319839814844357  1.0000
  O   O8        1.0  0.08869516921464604  0.33031510386083857  0.17261015713491445  1.0000
  O   O9        1.0  0.47004098520355364  0.5661362652684387  0.7316611660465755  1.0000
  O   O10       1.0  0.006253163338288292  0.1464594008846165  0.8103081933258249  1.0000
  O   O11       1.0  0.5412037836509119  0.6698070923259737  0.29085920772487217  1.0000
  O   O12       1.0  0.5090152434645491  0.26633751479618395  0.1715688191940872  1.0000
data_image67
_chemical_formula_structural       Na4C8N4O12
_chemical_formula_sum              "Na4 C8 N4 O12"
_cell_length_a       5.423166
_cell_length_b       3.6248270000000002
_cell_length_c       20.275782753631116
_cell_angle_alpha    88.79220736031418
_cell_angle_beta     90.0
_cell_angle_gamma    90.0

_space_group_name_H-M_alt    "P 1"
_space_group_IT_number       1

loop_
  _space_group_symop_operation_xyz
  'x, y, z'

loop_
  _atom_site_type_symbol
  _atom_site_label
  _atom_site_symmetry_multiplicity
  _atom_site_fract_x
  _atom_site_fract_y
  _atom_site_fract_z
  _atom_site_occupancy
  Na  Na1       1.0  0.41226679967526025  0.8789526131654841  0.9644153943474837  1.0000
  Na  Na2       1.0  0.8129140473638353  0.11528764033957795  0.566751107215239  1.0000
  Na  Na3       1.0  0.8584162619454514  0.7037673756076839  0.1641454036092417  1.0000
  Na  Na4       1.0  0.714642587623791  0.880416524101773  0.32857751706945054  1.0000
  C   C1        1.0  0.3807102722357469  0.9904762719113616  0.5256564990523108  1.0000
  C   C2        1.0  0.1399166758583983  0.9582993271353566  0.07614598048071408  1.0000
  C   C3        1.0  0.5349004853840862  0.5802096646299439  0.44862293890719185  1.0000
  C   C4        1.0  0.962067845162554  0.1747855727201313  0.9355438800542926  1.0000
  C   C5        1.0  0.5488458959342324  0.4956655300452379  0.759483711788526  1.0000
  C   C6        1.0  0.9634251964668906  0.16659831124835822  0.7359221233740941  1.0000
  C   C7        1.0  0.2897335684308282  0.5625087651227701  0.3479071538192061  1.0000
  C   C8        1.0  0.34078501531844196  0.37515486885064564  0.16035342466469818  1.0000
  N   N1        1.0  0.39638376288624033  0.7761023221079169  0.4766633419645615  1.0000
  N   N2        1.0  0.31404363621192144  0.13110057639137307  0.09506077653538547  1.0000
  N   N3        1.0  0.4924658428876063  0.4057485893048911  0.3976853478678424  1.0000
  N   N4        1.0  0.7438014595186302  0.13842589984545683  0.9230380623127281  1.0000
  O   O1        1.0  0.3043350577821961  0.029811092020082697  0.5860960225904539  1.0000
  O   O2        1.0  0.9618603591693329  0.7583235747835844  0.06617336967919907  1.0000
  O   O3        1.0  0.7366265629302353  0.43578370834079894  0.4719966606901028  1.0000
  O   O4        1.0  0.16510673214605529  0.2587849167156602  0.9538390315309068  1.0000
  O   O5        1.0  0.6696717198412229  0.6867833377312088  0.7942919022235008  1.0000
  O   O6        1.0  0.8514901215456255  0.07432232711511766  0.681451160124694  1.0000
  O   O7        1.0  0.10305981312875435  0.42202836306040764  0.3398466950397219  1.0000
  O   O8        1.0  0.13412266446258658  0.4351342908711466  0.18375725601066478  1.0000
  O   O9        1.0  0.4602021708929095  0.263868213811248  0.7321192013255348  1.0000
  O   O10       1.0  0.07567881803987264  0.2686678368999018  0.7828347137268306  1.0000
  O   O11       1.0  0.3587476659237544  0.8388530682688384  0.3185685710010549  1.0000
  O   O12       1.0  0.5430370879339889  0.5150522911219719  0.15750222180486778  1.0000
data_image68
_chemical_formula_structural       Na4C8N4O12
_chemical_formula_sum              "Na4 C8 N4 O12"
_cell_length_a       5.423166
_cell_length_b       3.6248270000000002
_cell_length_c       20.275782753631116
_cell_angle_alpha    88.79220736031418
_cell_angle_beta     90.0
_cell_angle_gamma    90.0

_space_group_name_H-M_alt    "P 1"
_space_group_IT_number       1

loop_
  _space_group_symop_operation_xyz
  'x, y, z'

loop_
  _atom_site_type_symbol
  _atom_site_label
  _atom_site_symmetry_multiplicity
  _atom_site_fract_x
  _atom_site_fract_y
  _atom_site_fract_z
  _atom_site_occupancy
  Na  Na1       1.0  0.5499121703373933  0.677198124906244  0.9587608648829729  1.0000
  Na  Na2       1.0  0.7819721962231702  0.02300592616290853  0.5817377537412364  1.0000
  Na  Na3       1.0  0.9360112848725498  0.6107832816054671  0.1633992358092892  1.0000
  Na  Na4       1.0  0.8295461958007001  0.006286478479087698  0.317621210387103  1.0000
  C   C1        1.0  0.2598252945047379  0.017825593692252006  0.541349629928725  1.0000
  C   C2        1.0  0.052218408886592016  0.20829964100303489  0.07386250340631162  1.0000
  C   C3        1.0  0.647142955747467  0.4982843110626213  0.4378469509490551  1.0000
  C   C4        1.0  0.9184098034778848  0.349280716097935  0.9175905647964719  1.0000
  C   C5        1.0  0.5192317098533509  0.39217095621750614  0.7426939163265367  1.0000
  C   C6        1.0  0.9994746941305909  0.11754146009347477  0.7506102052242868  1.0000
  C   C7        1.0  0.2973473649144175  0.588951509736601  0.3489257549094172  1.0000
  C   C8        1.0  0.31688924752332026  0.24362587694687066  0.17828487452245048  1.0000
  N   N1        1.0  0.2579930705665346  0.9113289647283789  0.4867326379984811  1.0000
  N   N2        1.0  0.2472091994924288  0.34712210555552736  0.08733069622715783  1.0000
  N   N3        1.0  0.5430930714618385  0.5736921156188364  0.3895950790447858  1.0000
  N   N4        1.0  0.7197554924507179  0.1975130094846722  0.9081501830584547  1.0000
  O   O1        1.0  0.2807458079448126  0.24553336199543407  0.5868598547757872  1.0000
  O   O2        1.0  0.8887820238814566  0.011590561991990933  0.04845759444685549  1.0000
  O   O3        1.0  0.7646670656470278  0.495979689788421  0.4826827783661855  1.0000
  O   O4        1.0  0.1092894455851648  0.46074910421398263  0.9349710087265645  1.0000
  O   O5        1.0  0.43892846049551104  0.6177219306441342  0.779640863351264  1.0000
  O   O6        1.0  0.9736545487686173  0.23776173196733952  0.6945875285614507  1.0000
  O   O7        1.0  0.13660810557482378  0.38578775657190234  0.3814824038946756  1.0000
  O   O8        1.0  0.11379589917956534  0.19080181819879627  0.20023200808237376  1.0000
  O   O9        1.0  0.5499076527051895  0.19883710632535334  0.6982192100285244  1.0000
  O   O10       1.0  0.1259121501456799  0.039569084781671426  0.7998323146706914  1.0000
  O   O11       1.0  0.287965429484291  0.739268340925127  0.29274703299846905  1.0000
  O   O12       1.0  0.5345915505596212  0.1504590201385747  0.1881435389377181  1.0000
data_image69
_chemical_formula_structural       Na4C8N4O12
_chemical_formula_sum              "Na4 C8 N4 O12"
_cell_length_a       5.423166
_cell_length_b       3.6248270000000002
_cell_length_c       20.275782753631116
_cell_angle_alpha    88.79220736031418
_cell_angle_beta     90.0
_cell_angle_gamma    90.0

_space_group_name_H-M_alt    "P 1"
_space_group_IT_number       1

loop_
  _space_group_symop_operation_xyz
  'x, y, z'

loop_
  _atom_site_type_symbol
  _atom_site_label
  _atom_site_symmetry_multiplicity
  _atom_site_fract_x
  _atom_site_fract_y
  _atom_site_fract_z
  _atom_site_occupancy
  Na  Na1       1.0  0.4926795311891621  0.7370375812143535  0.9303124166804358  1.0000
  Na  Na2       1.0  0.7855724161845741  0.9437387778717358  0.5673672354664351  1.0000
  Na  Na3       1.0  0.6574273882731705  0.8101339164956592  0.11989730614881597  1.0000
  Na  Na4       1.0  0.06123941273094102  0.26825406554308684  0.3089230024553728  1.0000
  C   C1        1.0  0.2733955290590777  0.026084221274794928  0.5478311852473481  1.0000
  C   C2        1.0  0.0708087073620598  0.18959138332542125  0.04571964100828252  1.0000
  C   C3        1.0  0.561317223939819  0.6224437336388413  0.47961456253725415  1.0000
  C   C4        1.0  0.9145377777754706  0.4132694000733632  0.9170862929251185  1.0000
  C   C5        1.0  0.5718100681907257  0.21431382340899918  0.7444440359565636  1.0000
  C   C6        1.0  0.983092195870204  0.9852896830913496  0.7711289333378852  1.0000
  C   C7        1.0  0.397449149810088  0.6985691936225117  0.3710165023024419  1.0000
  C   C8        1.0  0.26532193715439956  0.237480278138821  0.16148025193127227  1.0000
  N   N1        1.0  0.2920174539518744  0.7710696587848593  0.5049698216690242  1.0000
  N   N2        1.0  0.21481283213665003  0.26357581883739467  0.09289788678279298  1.0000
  N   N3        1.0  0.6148429396835242  0.6551542953965377  0.41017302082281787  1.0000
  N   N4        1.0  0.7501167530836818  0.19906981065985896  0.9179574541312346  1.0000
  O   O1        1.0  0.26754558846541004  0.1874590531048188  0.6013846745332362  1.0000
  O   O2        1.0  0.0015024868050742169  0.989588037970963  0.001656188080579879  1.0000
  O   O3        1.0  0.6924941902411168  0.4156341752324505  0.5167643021317259  1.0000
  O   O4        1.0  0.10948716977594283  0.5155341797746502  0.9228047125677986  1.0000
  O   O5        1.0  0.4822174672575378  0.29919007169197226  0.7958783290525646  1.0000
  O   O6        1.0  0.06415868300810201  0.2035521553577393  0.738044078436738  1.0000
  O   O7        1.0  0.23280653172940532  0.48741301991318997  0.40197361645379914  1.0000
  O   O8        1.0  0.08278205914591741  0.08492774986383266  0.19303326865712475  1.0000
  O   O9        1.0  0.6154341989618693  0.16887644538463475  0.6888599545330166  1.0000
  O   O10       1.0  0.8589775811835612  0.7500750425787513  0.7847889654257849  1.0000
  O   O11       1.0  0.3490514177573041  0.8259814438171398  0.31812903583830476  1.0000
  O   O12       1.0  0.482444712386704  0.35423431111491244  0.17824290393941147  1.0000
data_image70
_chemical_formula_structural       Na4C8N4O12
_chemical_formula_sum              "Na4 C8 N4 O12"
_cell_length_a       5.423166
_cell_length_b       3.6248270000000002
_cell_length_c       20.275782753631116
_cell_angle_alpha    88.79220736031418
_cell_angle_beta     90.0
_cell_angle_gamma    90.0

_space_group_name_H-M_alt    "P 1"
_space_group_IT_number       1

loop_
  _space_group_symop_operation_xyz
  'x, y, z'

loop_
  _atom_site_type_symbol
  _atom_site_label
  _atom_site_symmetry_multiplicity
  _atom_site_fract_x
  _atom_site_fract_y
  _atom_site_fract_z
  _atom_site_occupancy
  Na  Na1       1.0  0.5114623902858517  0.7457055280208222  0.9496516151307471  1.0000
  Na  Na2       1.0  0.7318183241832243  0.9729574832376647  0.5942386531525907  1.0000
  Na  Na3       1.0  0.6540473638015749  0.819548809080058  0.17395789100257017  1.0000
  Na  Na4       1.0  0.16978780163153817  0.3590206257994629  0.28515566167512124  1.0000
  C   C1        1.0  0.29155754360597164  0.02398684194878342  0.5518742077618225  1.0000
  C   C2        1.0  0.1253039783301576  0.0005941616876611322  0.05120721027108588  1.0000
  C   C3        1.0  0.6316722376986317  0.7677608823247059  0.4760065169096383  1.0000
  C   C4        1.0  0.9250185360532663  0.32055336231614073  0.9010025224383972  1.0000
  C   C5        1.0  0.4767161791942537  0.2625592789233966  0.7347770328460845  1.0000
  C   C6        1.0  0.9210288630207589  0.6204167355104807  0.7577500048274035  1.0000
  C   C7        1.0  0.416692455856401  0.8194691277906038  0.36138707994441316  1.0000
  C   C8        1.0  0.2209823097508048  0.21016930799638933  0.1579612571392389  1.0000
  N   N1        1.0  0.44317576921874036  0.8495617738477728  0.5201590479385864  1.0000
  N   N2        1.0  0.260482790164173  0.17194976720803723  0.09127829849094704  1.0000
  N   N3        1.0  0.634468373594733  0.8796714081441295  0.41476890132941124  1.0000
  N   N4        1.0  0.7075195440871712  0.25907386058190696  0.9202733816907152  1.0000
  O   O1        1.0  0.20888916347102743  0.26046773546661894  0.581388748374729  1.0000
  O   O2        1.0  0.9537661265124355  0.7990399555481256  0.04363249811600234  1.0000
  O   O3        1.0  0.7633433164121697  0.5482029992922952  0.5082825399951885  1.0000
  O   O4        1.0  0.13059885897959583  0.38845939746535896  0.8832240472461038  1.0000
  O   O5        1.0  0.3608638716834827  0.2405037649275597  0.7848786208582516  1.0000
  O   O6        1.0  0.0939833617269179  0.5953698288691349  0.7187952583136837  1.0000
  O   O7        1.0  0.22059649522233082  0.6835622343878571  0.3799232537958625  1.0000
  O   O8        1.0  0.006837858848421474  0.1415616830934892  0.19270928566362402  1.0000
  O   O9        1.0  0.5575101052469529  0.3607282226563991  0.6786153729853527  1.0000
  O   O10       1.0  0.8122137630435211  0.7769993256219262  0.7927000246487983  1.0000
  O   O11       1.0  0.48561637610171643  0.9301082368903069  0.3032447339446426  1.0000
  O   O12       1.0  0.411533890765953  0.3966344106439825  0.1819094128011622  1.0000
data_image71
_chemical_formula_structural       Na4C8N4O12
_chemical_formula_sum              "Na4 C8 N4 O12"
_cell_length_a       5.423166
_cell_length_b       3.6248270000000002
_cell_length_c       20.275782753631116
_cell_angle_alpha    88.79220736031418
_cell_angle_beta     90.0
_cell_angle_gamma    90.0

_space_group_name_H-M_alt    "P 1"
_space_group_IT_number       1

loop_
  _space_group_symop_operation_xyz
  'x, y, z'

loop_
  _atom_site_type_symbol
  _atom_site_label
  _atom_site_symmetry_multiplicity
  _atom_site_fract_x
  _atom_site_fract_y
  _atom_site_fract_z
  _atom_site_occupancy
  Na  Na1       1.0  0.4897829748645106  0.8821862855086056  0.9374056514185173  1.0000
  Na  Na2       1.0  0.7607230349560069  0.915839745897774  0.642072856816517  1.0000
  Na  Na3       1.0  0.7876433126589562  0.5356412226923163  0.25838136218514607  1.0000
  Na  Na4       1.0  0.2607289389401679  0.5917872907700323  0.28374959113857573  1.0000
  C   C1        1.0  0.21205486155081651  0.921586515943642  0.5419607108699784  1.0000
  C   C2        1.0  0.8957342543648092  0.7153085731069222  0.06852680024454028  1.0000
  C   C3        1.0  0.550632928884091  0.7623639561388621  0.4811030515273546  1.0000
  C   C4        1.0  0.02114687023709938  0.4164309353767284  0.8958299472485145  1.0000
  C   C5        1.0  0.4455618564626401  0.2907328319473871  0.727005539313873  1.0000
  C   C6        1.0  0.013400344606296466  0.6185174950149027  0.721248629005184  1.0000
  C   C7        1.0  0.5195398741896178  0.08759306227916941  0.3673757701512978  1.0000
  C   C8        1.0  0.16397316237967563  0.1401156699644419  0.14537861362670457  1.0000
  N   N1        1.0  0.29318435412752275  0.8754997882578728  0.4881833203284125  1.0000
  N   N2        1.0  0.02370690672452569  0.949173600308989  0.09257114804816169  1.0000
  N   N3        1.0  0.5974143970203882  0.9420419576879202  0.4186319507904547  1.0000
  N   N4        1.0  0.8126732564698146  0.3082708785993622  0.9081353433586683  1.0000
  O   O1        1.0  0.14220402845708427  0.8772536077457944  0.5961225319999216  1.0000
  O   O2        1.0  0.7342547707247149  0.6243252912828281  0.03358110120883828  1.0000
  O   O3        1.0  0.6936956257092084  0.5866499665216864  0.514886928673627  1.0000
  O   O4        1.0  0.186627886757238  0.6134311594506099  0.874236788049697  1.0000
  O   O5        1.0  0.381564463571735  0.1992737572258418  0.781305695775636  1.0000
  O   O6        1.0  0.05128172129363118  0.3957320633074781  0.684916136683077  1.0000
  O   O7        1.0  0.2841048711124528  0.15205241157440086  0.36336027936339516  1.0000
  O   O8        1.0  0.03353867793454235  0.28566418313165587  0.18701282146973447  1.0000
  O   O9        1.0  0.5645308283210996  0.43535110275257954  0.6857699626750471  1.0000
  O   O10       1.0  0.9740116293071661  0.779726274018946  0.7707089977585768  1.0000
  O   O11       1.0  0.667246642351654  0.10689283242799785  0.3146456005004854  1.0000
  O   O12       1.0  0.3813256595156074  0.15807470829266657  0.13870875502788468  1.0000
data_image72
_chemical_formula_structural       Na4C8N4O12
_chemical_formula_sum              "Na4 C8 N4 O12"
_cell_length_a       5.423166
_cell_length_b       3.6248270000000002
_cell_length_c       20.275782753631116
_cell_angle_alpha    88.79220736031418
_cell_angle_beta     90.0
_cell_angle_gamma    90.0

_space_group_name_H-M_alt    "P 1"
_space_group_IT_number       1

loop_
  _space_group_symop_operation_xyz
  'x, y, z'

loop_
  _atom_site_type_symbol
  _atom_site_label
  _atom_site_symmetry_multiplicity
  _atom_site_fract_x
  _atom_site_fract_y
  _atom_site_fract_z
  _atom_site_occupancy
  Na  Na1       1.0  0.5166538788521848  0.5945280464473877  0.9031465143654818  1.0000
  Na  Na2       1.0  0.6731625407169768  0.9994839595763637  0.6233038546701298  1.0000
  Na  Na3       1.0  0.7365634116519503  0.4996952636850888  0.23966249224753403  1.0000
  Na  Na4       1.0  0.21071947306215222  0.8188263411569994  0.2818146097481838  1.0000
  C   C1        1.0  0.19327017027023177  0.07183244314941106  0.4959744085011307  1.0000
  C   C2        1.0  0.7867628396684416  0.665695470670878  0.10635386695307525  1.0000
  C   C3        1.0  0.5859423168979396  0.7873660510321657  0.4756428270770624  1.0000
  C   C4        1.0  0.9838317570577849  0.424060207798701  0.9239013497161457  1.0000
  C   C5        1.0  0.522387363143562  0.33417897668897695  0.7358148340642242  1.0000
  C   C6        1.0  0.05919001472709806  0.7992148030995678  0.728240725603514  1.0000
  C   C7        1.0  0.6525680825147192  0.008925061204601459  0.36941850101106904  1.0000
  C   C8        1.0  0.07948689551975319  0.9981891663112582  0.15788372332117936  1.0000
  N   N1        1.0  0.35550825153075816  0.9359597052763706  0.4643144119394236  1.0000
  N   N2        1.0  0.8544915272813456  0.8417182035770974  0.15624503656400157  1.0000
  N   N3        1.0  0.7252949881788298  0.8016268235126464  0.419446583643906  1.0000
  N   N4        1.0  0.8560756819574143  0.19421540737082865  0.9113290819435603  1.0000
  O   O1        1.0  0.06039928208525435  0.1407562310542234  0.5356937520066845  1.0000
  O   O2        1.0  0.6897169727342671  0.5591885025019561  0.054249140888320335  1.0000
  O   O3        1.0  0.6561760828955174  0.6831806846934521  0.5311576879971032  1.0000
  O   O4        1.0  0.14172719031653286  0.6598823817599839  0.9375988736063295  1.0000
  O   O5        1.0  0.6053755285843917  0.15736696482668025  0.78390384156049  1.0000
  O   O6        1.0  0.9864656940090114  0.6929985793477687  0.6694668936330298  1.0000
  O   O7        1.0  0.4210894451984055  0.06399866994210801  0.35396990573442627  1.0000
  O   O8        1.0  0.1088500919901334  0.24905916293392977  0.20721422126099873  1.0000
  O   O9        1.0  0.46686169927686844  0.384943520634648  0.678451143227763  1.0000
  O   O10       1.0  0.028571662555929134  0.8497115995633283  0.7834816005292804  1.0000
  O   O11       1.0  0.8137380615516638  0.09414904556851189  0.32180265615516285  1.0000
  O   O12       1.0  0.2611579162665413  0.8581988213847943  0.12201905063773329  1.0000
data_image73
_chemical_formula_structural       Na4C8N4O12
_chemical_formula_sum              "Na4 C8 N4 O12"
_cell_length_a       5.423166
_cell_length_b       3.6248270000000002
_cell_length_c       20.275782753631116
_cell_angle_alpha    88.79220736031418
_cell_angle_beta     90.0
_cell_angle_gamma    90.0

_space_group_name_H-M_alt    "P 1"
_space_group_IT_number       1

loop_
  _space_group_symop_operation_xyz
  'x, y, z'

loop_
  _atom_site_type_symbol
  _atom_site_label
  _atom_site_symmetry_multiplicity
  _atom_site_fract_x
  _atom_site_fract_y
  _atom_site_fract_z
  _atom_site_occupancy
  Na  Na1       1.0  0.4607946911608356  0.7752406404418715  0.9159190082464207  1.0000
  Na  Na2       1.0  0.6174969355804433  0.14277144196624114  0.5939925935222886  1.0000
  Na  Na3       1.0  0.6247586001433347  0.23652742556988504  0.23892074059820878  1.0000
  Na  Na4       1.0  0.24795065987002274  0.5244047720645836  0.29657720902486184  1.0000
  C   C1        1.0  0.16396296799812146  0.1915886790213821  0.5094674945763807  1.0000
  C   C2        1.0  0.8774214702185443  0.8811802422750699  0.10359734834496304  1.0000
  C   C3        1.0  0.49882963485579923  0.762557488452576  0.4725141903849271  1.0000
  C   C4        1.0  0.9201529282485579  0.3488549998910131  0.9271284857860895  1.0000
  C   C5        1.0  0.5662704059970228  0.3295914304911588  0.7319347312785432  1.0000
  C   C6        1.0  0.9889040330005926  0.8239573151150872  0.7368002319503216  1.0000
  C   C7        1.0  0.6342489911568047  0.9080970046010806  0.35529219376223964  1.0000
  C   C8        1.0  0.19466951935839338  0.07681790194004345  0.16141166147353123  1.0000
  N   N1        1.0  0.2914651680967891  0.9990901929289573  0.46960525514749374  1.0000
  N   N2        1.0  0.9332596664955348  0.9601278964865547  0.16078324823418888  1.0000
  N   N3        1.0  0.6860443795835052  0.9043634070696672  0.4197250188580909  1.0000
  N   N4        1.0  0.7274199722102169  0.21485024740994674  0.9333456585673685  1.0000
  O   O1        1.0  0.09585668295766084  0.3963155574750883  0.5503463005094308  1.0000
  O   O2        1.0  0.8637189362390931  0.6659738092825462  0.05760190056063452  1.0000
  O   O3        1.0  0.5483734919125243  0.5661657977865494  0.5182509750495709  1.0000
  O   O4        1.0  0.12062704017790027  0.4377490459892672  0.9105779364221657  1.0000
  O   O5        1.0  0.6711450050492362  0.5006875322289237  0.7715491606640892  1.0000
  O   O6        1.0  0.9523985858763535  0.9379591569732335  0.6824219799106411  1.0000
  O   O7        1.0  0.4440973898057487  0.9947827901303496  0.33343782919873755  1.0000
  O   O8        1.0  0.23350897402098125  0.12714615268264345  0.2243635551168189  1.0000
  O   O9        1.0  0.45622323711933666  0.1507367549701796  0.6978678988503082  1.0000
  O   O10       1.0  0.1543833299216293  0.6668886316891826  0.7712027264645142  1.0000
  O   O11       1.0  0.7805996431019507  0.7320705679572603  0.31386742020449765  1.0000
  O   O12       1.0  0.33689374474279826  0.11034782216943562  0.11899203339371907  1.0000
data_image74
_chemical_formula_structural       Na4C8N4O12
_chemical_formula_sum              "Na4 C8 N4 O12"
_cell_length_a       5.423166
_cell_length_b       3.6248270000000002
_cell_length_c       20.275782753631116
_cell_angle_alpha    88.79220736031418
_cell_angle_beta     90.0
_cell_angle_gamma    90.0

_space_group_name_H-M_alt    "P 1"
_space_group_IT_number       1

loop_
  _space_group_symop_operation_xyz
  'x, y, z'

loop_
  _atom_site_type_symbol
  _atom_site_label
  _atom_site_symmetry_multiplicity
  _atom_site_fract_x
  _atom_site_fract_y
  _atom_site_fract_z
  _atom_site_occupancy
  Na  Na1       1.0  0.452330877686987  0.9257315115176756  0.9240872660617268  1.0000
  Na  Na2       1.0  0.6835836050499051  0.26371088756895267  0.6120287993794966  1.0000
  Na  Na3       1.0  0.7376687627492092  0.05066592338235447  0.24291008564232605  1.0000
  Na  Na4       1.0  0.18295980136333578  0.417466773775671  0.3444980314448369  1.0000
  C   C1        1.0  0.16990473300130102  0.8584485852748198  0.514683681240478  1.0000
  C   C2        1.0  0.8834593269325095  0.08964703299654686  0.07160632352330398  1.0000
  C   C3        1.0  0.5557266966901901  0.8988238255167267  0.47226093448060963  1.0000
  C   C4        1.0  0.9399059847795351  0.3606267894144646  0.8996383906664126  1.0000
  C   C5        1.0  0.5212429976540354  0.2094204031476994  0.7631022812415114  1.0000
  C   C6        1.0  0.9847680349322685  0.6998883266650393  0.7005310457927346  1.0000
  C   C7        1.0  0.6344039658794217  0.8383856832907829  0.368392688464853  1.0000
  C   C8        1.0  0.218271692257632  0.2975166650526617  0.15019491014204084  1.0000
  N   N1        1.0  0.32593131544936543  0.7903727089892469  0.4690749887656123  1.0000
  N   N2        1.0  0.996332429979994  0.2930736182648245  0.10780494699455101  1.0000
  N   N3        1.0  0.7162663345265674  0.9197799764130734  0.4265083307227071  1.0000
  N   N4        1.0  0.7190771998569674  0.359504584198421  0.913487007812883  1.0000
  O   O1        1.0  0.0911533586873524  0.051689641257753216  0.5560015486409844  1.0000
  O   O2        1.0  0.8183600616157845  0.9585833575570113  0.023166136004338034  1.0000
  O   O3        1.0  0.6405653299731091  0.9246520924756745  0.5306423831282135  1.0000
  O   O4        1.0  0.12662443042623053  0.260432435258791  0.877499724802259  1.0000
  O   O5        1.0  0.5088790480588856  0.3843634097410158  0.8103444950752657  1.0000
  O   O6        1.0  0.8013091882727951  0.7506473177916231  0.6699671031166785  1.0000
  O   O7        1.0  0.4626552383228034  0.9315482563379204  0.33063328736312037  1.0000
  O   O8        1.0  0.15690773336114994  0.23346431714110952  0.2103462465549482  1.0000
  O   O9        1.0  0.48313101081227255  0.15149285924433892  0.7080813772680911  1.0000
  O   O10       1.0  0.017582324474888722  0.5155217440891502  0.7512764744553713  1.0000
  O   O11       1.0  0.8078479209550247  0.6133245453164853  0.3384206106286927  1.0000
  O   O12       1.0  0.4400045708352897  0.3402417651113294  0.13397569381980895  1.0000
data_image75
_chemical_formula_structural       Na4C8N4O12
_chemical_formula_sum              "Na4 C8 N4 O12"
_cell_length_a       5.423166
_cell_length_b       3.6248270000000002
_cell_length_c       20.275782753631116
_cell_angle_alpha    88.79220736031418
_cell_angle_beta     90.0
_cell_angle_gamma    90.0

_space_group_name_H-M_alt    "P 1"
_space_group_IT_number       1

loop_
  _space_group_symop_operation_xyz
  'x, y, z'

loop_
  _atom_site_type_symbol
  _atom_site_label
  _atom_site_symmetry_multiplicity
  _atom_site_fract_x
  _atom_site_fract_y
  _atom_site_fract_z
  _atom_site_occupancy
  Na  Na1       1.0  0.548433194477443  0.860436888344259  0.9623829368446287  1.0000
  Na  Na2       1.0  0.7359666945158296  0.5071276033670373  0.586412355956101  1.0000
  Na  Na3       1.0  0.6820708695441864  0.2008957813281085  0.20823710365781486  1.0000
  Na  Na4       1.0  0.17102997310363488  0.5546900384726551  0.32882463484867375  1.0000
  C   C1        1.0  0.21866786200969562  0.7408791824888026  0.5013131719564567  1.0000
  C   C2        1.0  0.9476656597297528  0.026005369155860714  0.07147658448644534  1.0000
  C   C3        1.0  0.6106209225975594  0.7781656622670449  0.4557740383239027  1.0000
  C   C4        1.0  0.03611009657323394  0.2393304116130528  0.926609722415001  1.0000
  C   C5        1.0  0.3963876035739798  0.306337333561039  0.7636904318751729  1.0000
  C   C6        1.0  0.9284666504951764  0.7729559286115336  0.7211938948029453  1.0000
  C   C7        1.0  0.6291637111825906  0.749654817213293  0.33813929758595845  1.0000
  C   C8        1.0  0.18541488066259415  0.36007646424263084  0.15371649975300344  1.0000
  N   N1        1.0  0.3952209202549802  0.6048654139330445  0.47222869075969276  1.0000
  N   N2        1.0  0.17826301645975828  0.1470358639713244  0.09235836222400584  1.0000
  N   N3        1.0  0.7488207958638493  0.6698603425194447  0.4051916604889418  1.0000
  N   N4        1.0  0.844044127421485  0.431097970126779  0.9149713858014326  1.0000
  O   O1        1.0  0.08421545093077737  0.8693786461324975  0.5414798344428784  1.0000
  O   O2        1.0  0.7758108193995148  0.8360462874608869  0.08377863478758885  1.0000
  O   O3        1.0  0.6920229863500065  0.9953974280283048  0.5024414183026942  1.0000
  O   O4        1.0  0.14321139543754852  0.9991657943472163  0.9549974198070162  1.0000
  O   O5        1.0  0.3719544771090029  0.31960468832287  0.8208797818351291  1.0000
  O   O6        1.0  0.9745889346181662  0.7993882979677862  0.6620683892420465  1.0000
  O   O7        1.0  0.4431627589213062  0.00048746757622053494  0.33919578944161716  1.0000
  O   O8        1.0  0.9817067002457318  0.4927748971196314  0.18281383893751366  1.0000
  O   O9        1.0  0.39345831340595205  0.15423489681886865  0.7135636075117545  1.0000
  O   O10       1.0  0.9025667765079846  0.5799636957592539  0.7619234856142091  1.0000
  O   O11       1.0  0.7136805995334775  0.6222435218064025  0.2814327980265638  1.0000
  O   O12       1.0  0.37024365040331175  0.4347819165807483  0.18425262956618194  1.0000
data_image76
_chemical_formula_structural       Na4C8N4O12
_chemical_formula_sum              "Na4 C8 N4 O12"
_cell_length_a       5.423166
_cell_length_b       3.6248270000000002
_cell_length_c       20.275782753631116
_cell_angle_alpha    88.79220736031418
_cell_angle_beta     90.0
_cell_angle_gamma    90.0

_space_group_name_H-M_alt    "P 1"
_space_group_IT_number       1

loop_
  _space_group_symop_operation_xyz
  'x, y, z'

loop_
  _atom_site_type_symbol
  _atom_site_label
  _atom_site_symmetry_multiplicity
  _atom_site_fract_x
  _atom_site_fract_y
  _atom_site_fract_z
  _atom_site_occupancy
  Na  Na1       1.0  0.5556032536065552  0.8604738362344901  0.9804248896461373  1.0000
  Na  Na2       1.0  0.6759893661261955  0.5179891416628299  0.6073366144648206  1.0000
  Na  Na3       1.0  0.5971302440367622  0.9595783100447977  0.18775447124106862  1.0000
  Na  Na4       1.0  0.03289163810279283  0.44823536532564123  0.35767594355461485  1.0000
  C   C1        1.0  0.2762016765456538  0.5688361973610723  0.500602447641158  1.0000
  C   C2        1.0  0.9759766782584669  0.9701578586749868  0.11371380492134686  1.0000
  C   C3        1.0  0.5768744990718258  0.9542352259816274  0.44490524804735865  1.0000
  C   C4        1.0  0.053787285488889225  0.2359739634912701  0.9453314419729807  1.0000
  C   C5        1.0  0.3951871625307877  0.2459894432010848  0.7422631392572252  1.0000
  C   C6        1.0  0.9552526504607656  0.6100788096355967  0.7111195026493622  1.0000
  C   C7        1.0  0.623161718587487  0.8583837980809512  0.31948171592533614  1.0000
  C   C8        1.0  0.19613030623967487  0.4135223788309008  0.14834909516798578  1.0000
  N   N1        1.0  0.3240404252331873  0.7716075757447562  0.45306549527271783  1.0000
  N   N2        1.0  0.1958740513503473  0.15176686151391638  0.1060800414821883  1.0000
  N   N3        1.0  0.7156358018993576  0.9107424091057493  0.3926478404877993  1.0000
  N   N4        1.0  0.8938403342808843  0.48023336817501416  0.9352226511676884  1.0000
  O   O1        1.0  0.22921895004460105  0.40617734113197024  0.5505235088555358  1.0000
  O   O2        1.0  0.767261201353882  0.03830824808396538  0.0946685933304916  1.0000
  O   O3        1.0  0.6630579927953233  0.09528853392227915  0.5010004846144616  1.0000
  O   O4        1.0  0.17420315144561244  0.017546995583358704  0.9721270310323213  1.0000
  O   O5        1.0  0.40638665258675416  0.2303282717141284  0.7947688698210231  1.0000
  O   O6        1.0  0.05415668848803912  0.8535025368810722  0.6692992131929251  1.0000
  O   O7        1.0  0.40720506912591775  0.9472106000493566  0.30360036915104516  1.0000
  O   O8        1.0  0.9977317876058391  0.6344349498694004  0.1528063770145452  1.0000
  O   O9        1.0  0.4668493405609072  0.31061038312361744  0.6885154439910567  1.0000
  O   O10       1.0  0.8460651718267449  0.5239646805962485  0.7571230681547395  1.0000
  O   O11       1.0  0.8182725329232597  0.7482934426873202  0.2871471640764317  1.0000
  O   O12       1.0  0.3690625187325592  0.464540483095941  0.19227552484543933  1.0000
data_image77
_chemical_formula_structural       Na4C8N4O12
_chemical_formula_sum              "Na4 C8 N4 O12"
_cell_length_a       5.423166
_cell_length_b       3.6248270000000002
_cell_length_c       20.275782753631116
_cell_angle_alpha    88.79220736031418
_cell_angle_beta     90.0
_cell_angle_gamma    90.0

_space_group_name_H-M_alt    "P 1"
_space_group_IT_number       1

loop_
  _space_group_symop_operation_xyz
  'x, y, z'

loop_
  _atom_site_type_symbol
  _atom_site_label
  _atom_site_symmetry_multiplicity
  _atom_site_fract_x
  _atom_site_fract_y
  _atom_site_fract_z
  _atom_site_occupancy
  Na  Na1       1.0  0.640042340885232  0.6914326083644253  0.9742041118508272  1.0000
  Na  Na2       1.0  0.674131856458241  0.481271254040867  0.5837147550266641  1.0000
  Na  Na3       1.0  0.5605355613362158  0.9723837189288622  0.22654523107292623  1.0000
  Na  Na4       1.0  0.14052928470935644  0.4073595857909962  0.365047636755322  1.0000
  C   C1        1.0  0.11835900048743928  0.6890993902479423  0.5016020431425936  1.0000
  C   C2        1.0  0.9540973544623839  0.9815233390129385  0.09907576913272353  1.0000
  C   C3        1.0  0.5379036951298306  0.9864678287460549  0.4648053529570557  1.0000
  C   C4        1.0  0.08589530357062447  0.07744269125784342  0.9296254451022534  1.0000
  C   C5        1.0  0.506348437117936  0.17266798746475806  0.7458207466813584  1.0000
  C   C6        1.0  0.9319682988734  0.7194117238139159  0.6952128660604183  1.0000
  C   C7        1.0  0.6042440336940748  0.9783901636969746  0.3442705787518821  1.0000
  C   C8        1.0  0.2236989766184294  0.4739085886275505  0.12795329309184092  1.0000
  N   N1        1.0  0.30659147662937203  0.8132089597570655  0.46603480134551917  1.0000
  N   N2        1.0  0.13093089448767647  0.24952101436024754  0.08010638352055488  1.0000
  N   N3        1.0  0.6651083270225724  0.09942783862912848  0.40960949614480846  1.0000
  N   N4        1.0  0.8847685490160957  0.19990785710577397  0.9120552390034332  1.0000
  O   O1        1.0  0.038640450736011696  0.6682432928105209  0.557288300019983  1.0000
  O   O2        1.0  0.7495214522008349  0.933795006481626  0.07907663537886522  1.0000
  O   O3        1.0  0.657557351246542  0.03580112775527046  0.5115632671526761  1.0000
  O   O4        1.0  0.27044502446195695  0.9380092367676766  0.9503410647109124  1.0000
  O   O5        1.0  0.44700960911468657  0.06340937602517009  0.8041874304452311  1.0000
  O   O6        1.0  0.026395895597013386  0.9398411975390708  0.6636640603203536  1.0000
  O   O7        1.0  0.4231558057801153  0.8005907027989567  0.3323651386107837  1.0000
  O   O8        1.0  0.03854215534614136  0.7613953540910181  0.14639157370719674  1.0000
  O   O9        1.0  0.5113449443531016  0.18243541541242328  0.6915820675355865  1.0000
  O   O10       1.0  0.8398696362105056  0.5676281202132899  0.7458494907487255  1.0000
  O   O11       1.0  0.7868857979499876  0.022535188235775383  0.3120136788396184  1.0000
  O   O12       1.0  0.3793933102562541  0.48819592166272074  0.1762720364353685  1.0000
data_image78
_chemical_formula_structural       Na4C8N4O12
_chemical_formula_sum              "Na4 C8 N4 O12"
_cell_length_a       5.423166
_cell_length_b       3.6248270000000002
_cell_length_c       20.275782753631116
_cell_angle_alpha    88.79220736031418
_cell_angle_beta     90.0
_cell_angle_gamma    90.0

_space_group_name_H-M_alt    "P 1"
_space_group_IT_number       1

loop_
  _space_group_symop_operation_xyz
  'x, y, z'

loop_
  _atom_site_type_symbol
  _atom_site_label
  _atom_site_symmetry_multiplicity
  _atom_site_fract_x
  _atom_site_fract_y
  _atom_site_fract_z
  _atom_site_occupancy
  Na  Na1       1.0  0.7059654207525636  0.4057193380941895  0.9836367989507595  1.0000
  Na  Na2       1.0  0.5326132144060859  0.4905951375679136  0.626036730723727  1.0000
  Na  Na3       1.0  0.5751361411697287  0.07512971145649112  0.1832183485015319  1.0000
  Na  Na4       1.0  0.0857293249411577  0.22142918957877744  0.3612636053748016  1.0000
  C   C1        1.0  0.11100038370193255  0.6654867989789037  0.45909095898954455  1.0000
  C   C2        1.0  0.9079453857513655  0.13268255202173806  0.09121774776928482  1.0000
  C   C3        1.0  0.6025041285434498  0.7972070847330237  0.46333346040803897  1.0000
  C   C4        1.0  0.15498689880649463  0.010672160928316243  0.9256877071842573  1.0000
  C   C5        1.0  0.4580714202699206  0.23271510194565925  0.7815052789837666  1.0000
  C   C6        1.0  0.9984158240648663  0.9016646898114679  0.721280629410601  1.0000
  C   C7        1.0  0.694868872720719  0.8639219321569991  0.34386888963337503  1.0000
  C   C8        1.0  0.1497140340344958  0.6836854363158931  0.13326035207637277  1.0000
  N   N1        1.0  0.24522705376688772  0.8553015466314735  0.4176129100361564  1.0000
  N   N2        1.0  0.036986345485435224  0.45746502118068155  0.08270620566571885  1.0000
  N   N3        1.0  0.6711073127352181  0.74946967619239  0.4099206209818981  1.0000
  N   N4        1.0  0.9670364470753489  0.18203395323064497  0.9144879972292607  1.0000
  O   O1        1.0  0.06130035960084912  0.4738976811622393  0.5108520145025647  1.0000
  O   O2        1.0  0.738728020327104  0.947451495526769  0.06289005346480114  1.0000
  O   O3        1.0  0.5984428844465719  0.9445310216327445  0.5143600602176558  1.0000
  O   O4        1.0  0.32507728476033904  0.8118141378182214  0.949767337389006  1.0000
  O   O5        1.0  0.4351946017160156  0.2750858843481601  0.8339245017433929  1.0000
  O   O6        1.0  0.9758379421846082  0.9699796956905224  0.6626191952035307  1.0000
  O   O7        1.0  0.5747827040399407  0.12892797610045004  0.312683975114003  1.0000
  O   O8        1.0  0.9914211489954424  0.9434882480822117  0.15630364105722835  1.0000
  O   O9        1.0  0.45817511256216253  0.1462254069325821  0.7221850608008465  1.0000
  O   O10       1.0  0.9230190646344694  0.8995142306605867  0.7779687908451711  1.0000
  O   O11       1.0  0.8995864633289768  0.7443732850265566  0.3157743969413891  1.0000
  O   O12       1.0  0.327425935820397  0.5821211985627399  0.1742940119265281  1.0000
data_image79
_chemical_formula_structural       Na4C8N4O12
_chemical_formula_sum              "Na4 C8 N4 O12"
_cell_length_a       5.423166
_cell_length_b       3.6248270000000002
_cell_length_c       20.275782753631116
_cell_angle_alpha    88.79220736031418
_cell_angle_beta     90.0
_cell_angle_gamma    90.0

_space_group_name_H-M_alt    "P 1"
_space_group_IT_number       1

loop_
  _space_group_symop_operation_xyz
  'x, y, z'

loop_
  _atom_site_type_symbol
  _atom_site_label
  _atom_site_symmetry_multiplicity
  _atom_site_fract_x
  _atom_site_fract_y
  _atom_site_fract_z
  _atom_site_occupancy
  Na  Na1       1.0  0.6221293052911858  0.6000292224025772  0.9535334942035812  1.0000
  Na  Na2       1.0  0.4087187989460578  0.46563632395900245  0.6238881255571551  1.0000
  Na  Na3       1.0  0.5421915108173864  0.05849422652561329  0.1481930501937637  1.0000
  Na  Na4       1.0  0.18943828214436853  0.38233664565646275  0.32688752276346095  1.0000
  C   C1        1.0  0.21338314927447233  0.5064757073571351  0.4903379028010033  1.0000
  C   C2        1.0  0.0037539228370544464  0.1665459981637435  0.09393583377947001  1.0000
  C   C3        1.0  0.7158242227643943  0.6603996839283237  0.4733716813964345  1.0000
  C   C4        1.0  0.1197366184907327  0.9473857796388975  0.9533625684494813  1.0000
  C   C5        1.0  0.5146524714816415  0.4732494009570754  0.8032364214462586  1.0000
  C   C6        1.0  0.805593089248091  0.0007441761272648506  0.6974457072928524  1.0000
  C   C7        1.0  0.6236095594265045  0.7589027476900226  0.28632264758806997  1.0000
  C   C8        1.0  0.14571799011408926  0.629849225203055  0.1468601342655046  1.0000
  N   N1        1.0  0.3251450633552746  0.7175520888626759  0.4514597331375612  1.0000
  N   N2        1.0  0.20149793885150857  0.3559740951375585  0.10085726600488853  1.0000
  N   N3        1.0  0.8456690210315458  0.5490166793315227  0.4292887549891659  1.0000
  N   N4        1.0  0.9377226717085901  0.9998991601678173  0.9247423767333638  1.0000
  O   O1        1.0  0.14364622164240434  0.3847413674271343  0.5429850067562473  1.0000
  O   O2        1.0  0.7915687309321013  0.25265645495981914  0.07404026873805414  1.0000
  O   O3        1.0  0.6455989897749164  0.7442098476805418  0.5287980864358195  1.0000
  O   O4        1.0  0.2970659356016453  0.8918357570961575  0.9937077376169179  1.0000
  O   O5        1.0  0.620039100955508  0.5499593659955013  0.8542395884184882  1.0000
  O   O6        1.0  0.705298119380511  0.9186584842548478  0.6485144687190928  1.0000
  O   O7        1.0  0.4431725467307725  0.9076709649659775  0.29895298989471  1.0000
  O   O8        1.0  0.960647675809681  0.8258669469214573  0.1522209245541052  1.0000
  O   O9        1.0  0.4360610346273232  0.3673108471637753  0.7508345054418245  1.0000
  O   O10       1.0  0.9162100168682146  0.07557587585044412  0.7454820280782923  1.0000
  O   O11       1.0  0.817551249529632  0.6030194089270052  0.2731387305661697  1.0000
  O   O12       1.0  0.3365213536485432  0.544403058829718  0.18663128284005087  1.0000
data_image80
_chemical_formula_structural       Na4C8N4O12
_chemical_formula_sum              "Na4 C8 N4 O12"
_cell_length_a       5.423166
_cell_length_b       3.6248270000000002
_cell_length_c       20.275782753631116
_cell_angle_alpha    88.79220736031418
_cell_angle_beta     90.0
_cell_angle_gamma    90.0

_space_group_name_H-M_alt    "P 1"
_space_group_IT_number       1

loop_
  _space_group_symop_operation_xyz
  'x, y, z'

loop_
  _atom_site_type_symbol
  _atom_site_label
  _atom_site_symmetry_multiplicity
  _atom_site_fract_x
  _atom_site_fract_y
  _atom_site_fract_z
  _atom_site_occupancy
  Na  Na1       1.0  0.6720585394832419  0.32384051693139737  0.9610685564224086  1.0000
  Na  Na2       1.0  0.40379380561133693  0.4783890164428244  0.6241792296186844  1.0000
  Na  Na3       1.0  0.5223838317105842  0.9858859896389556  0.14066222488492094  1.0000
  Na  Na4       1.0  0.17282689326641032  0.3953124101019573  0.33599586710735946  1.0000
  C   C1        1.0  0.2527944921211075  0.6143043420783683  0.47870828104969365  1.0000
  C   C2        1.0  0.9609935279752349  0.026098624826164762  0.08604788642550498  1.0000
  C   C3        1.0  0.753822491950797  0.6502001945566669  0.4812370030987372  1.0000
  C   C4        1.0  0.22545370879632398  0.936279928223701  0.9450591654861392  1.0000
  C   C5        1.0  0.5071961792528538  0.567873394302632  0.8199141660135774  1.0000
  C   C6        1.0  0.7303768900995953  0.9769108809563496  0.7057938506210504  1.0000
  C   C7        1.0  0.6781505655652951  0.9792856286924196  0.2837939707502823  1.0000
  C   C8        1.0  0.08649454131781908  0.501252089425335  0.15146820014209675  1.0000
  N   N1        1.0  0.3224911725088345  0.6961706734423485  0.42211066202928055  1.0000
  N   N2        1.0  0.1467949086450503  0.23555457942493618  0.10389821444715297  1.0000
  N   N3        1.0  0.8154767030568528  0.8436727431547111  0.43149030639645347  1.0000
  N   N4        1.0  0.07460970463780314  0.17107037128163638  0.9395542793419568  1.0000
  O   O1        1.0  0.21169816686613224  0.584112688081597  0.5347273551607175  1.0000
  O   O2        1.0  0.7558259740197331  0.11004689827551473  0.05849959333289689  1.0000
  O   O3        1.0  0.7045983641200841  0.44193094955376355  0.5243405607980358  1.0000
  O   O4        1.0  0.3930438682297948  0.7441954828119107  0.9715731103635346  1.0000
  O   O5        1.0  0.7158848287519983  0.6651786410555277  0.8337967678334599  1.0000
  O   O6        1.0  0.5182354947548654  0.03369221919849519  0.7021206778703474  1.0000
  O   O7        1.0  0.5561607528482161  0.19144243241603465  0.314502605276668  1.0000
  O   O8        1.0  0.8652958693346973  0.736042961314151  0.1367494324446876  1.0000
  O   O9        1.0  0.32765531761524974  0.5427682673835779  0.7905252071835688  1.0000
  O   O10       1.0  0.9568335679951006  0.9206214062161948  0.6949775984322932  1.0000
  O   O11       1.0  0.8136390871334048  0.7444601638620714  0.27297337429981183  1.0000
  O   O12       1.0  0.19966681877424997  0.4505793315955797  0.20349174527880237  1.0000
data_image81
_chemical_formula_structural       Na4C8N4O12
_chemical_formula_sum              "Na4 C8 N4 O12"
_cell_length_a       5.423166
_cell_length_b       3.6248270000000002
_cell_length_c       20.275782753631116
_cell_angle_alpha    88.79220736031418
_cell_angle_beta     90.0
_cell_angle_gamma    90.0

_space_group_name_H-M_alt    "P 1"
_space_group_IT_number       1

loop_
  _space_group_symop_operation_xyz
  'x, y, z'

loop_
  _atom_site_type_symbol
  _atom_site_label
  _atom_site_symmetry_multiplicity
  _atom_site_fract_x
  _atom_site_fract_y
  _atom_site_fract_z
  _atom_site_occupancy
  Na  Na1       1.0  0.8027614588162211  0.47325416930807385  0.9542810753863903  1.0000
  Na  Na2       1.0  0.3364772409361211  0.5637053423386988  0.6449370136859206  1.0000
  Na  Na3       1.0  0.5259712756181069  0.8066956431630405  0.15071434053168267  1.0000
  Na  Na4       1.0  0.09842021328786243  0.48984870083882737  0.3352769294320106  1.0000
  C   C1        1.0  0.26722409259565366  0.677838720109819  0.4689194229459911  1.0000
  C   C2        1.0  0.9378380400064845  0.9188137769820615  0.08998678009270011  1.0000
  C   C3        1.0  0.7770340218842076  0.7294199271508932  0.44943380599043387  1.0000
  C   C4        1.0  0.23340465933644605  0.7520801753739436  0.967534488291075  1.0000
  C   C5        1.0  0.4620147981102742  0.5569537784761429  0.8261280046025866  1.0000
  C   C6        1.0  0.7084764949635378  0.9312081441840308  0.7036428488690945  1.0000
  C   C7        1.0  0.7002634528256554  0.1403378414331622  0.2994841278574773  1.0000
  C   C8        1.0  0.09203448744843223  0.42791414024298247  0.1498239268894393  1.0000
  N   N1        1.0  0.33610145420384085  0.6029638154522814  0.4146819029481009  1.0000
  N   N2        1.0  0.10418066109105328  0.1996840026746688  0.10390424679608046  1.0000
  N   N3        1.0  0.9044597364816258  0.9149016194941937  0.4076517769062464  1.0000
  N   N4        1.0  0.0543784917341712  0.9170780918835242  0.93519308009288  1.0000
  O   O1        1.0  0.22916174221220215  0.7946622569072899  0.522873025298278  1.0000
  O   O2        1.0  0.7690597766764603  0.8926585728442955  0.04448780678094577  1.0000
  O   O3        1.0  0.6635037316085288  0.6076278810658877  0.49449939029381973  1.0000
  O   O4        1.0  0.44215450614478596  0.6167122446286284  0.9878148302876787  1.0000
  O   O5        1.0  0.654279423323047  0.6647538201458608  0.823112931203896  1.0000
  O   O6        1.0  0.516220540989858  0.09668496643221625  0.7005259803278104  1.0000
  O   O7        1.0  0.5151771147426001  0.26468713674994393  0.29776713583220277  1.0000
  O   O8        1.0  0.8992573920213653  0.694198123586151  0.14513204793383983  1.0000
  O   O9        1.0  0.2889681166247996  0.42731770338155556  0.8563110565371618  1.0000
  O   O10       1.0  0.925372038890498  0.8944389245813166  0.682109196089576  1.0000
  O   O11       1.0  0.86965906176484  0.9542808350658584  0.27885760071454296  1.0000
  O   O12       1.0  0.23459715386847868  0.4005717800279447  0.20077568566558693  1.0000
data_image82
_chemical_formula_structural       Na4C8N4O12
_chemical_formula_sum              "Na4 C8 N4 O12"
_cell_length_a       5.423166
_cell_length_b       3.6248270000000002
_cell_length_c       20.275782753631116
_cell_angle_alpha    88.79220736031418
_cell_angle_beta     90.0
_cell_angle_gamma    90.0

_space_group_name_H-M_alt    "P 1"
_space_group_IT_number       1

loop_
  _space_group_symop_operation_xyz
  'x, y, z'

loop_
  _atom_site_type_symbol
  _atom_site_label
  _atom_site_symmetry_multiplicity
  _atom_site_fract_x
  _atom_site_fract_y
  _atom_site_fract_z
  _atom_site_occupancy
  Na  Na1       1.0  0.8047446676183163  0.4055756768868515  0.9958929529763395  1.0000
  Na  Na2       1.0  0.15507958209785166  0.45389095507481914  0.5904374590793154  1.0000
  Na  Na3       1.0  0.4915942589195425  0.7609169680639144  0.15311922664404806  1.0000
  Na  Na4       1.0  0.14544921873525007  0.5537748671024236  0.32167807781444213  1.0000
  C   C1        1.0  0.35138914112547254  0.7303732009769659  0.4716233622703469  1.0000
  C   C2        1.0  0.8779677499662504  0.9201677392740735  0.11205939156046574  1.0000
  C   C3        1.0  0.8044829331226737  0.9546162117693109  0.4564599356792718  1.0000
  C   C4        1.0  0.22386387595643376  0.851433609890329  0.9822057257465789  1.0000
  C   C5        1.0  0.596310281182532  0.4459686859840164  0.8188251226336787  1.0000
  C   C6        1.0  0.7177406552366348  0.8816744466342711  0.6763464311485453  1.0000
  C   C7        1.0  0.6701499218734317  0.06316110747988013  0.2961268610672095  1.0000
  C   C8        1.0  0.053283958829128286  0.41967567446375575  0.16100472430265864  1.0000
  N   N1        1.0  0.349985771946017  0.615603530446702  0.41654424886265734  1.0000
  N   N2        1.0  0.002218355210514389  0.2136156389969125  0.10533066290839077  1.0000
  N   N3        1.0  0.8805954531912048  0.13145574372220672  0.4075091508234217  1.0000
  N   N4        1.0  0.11253752526859473  0.05873247087733402  0.9439220255108763  1.0000
  O   O1        1.0  0.3184508041614177  0.8695042470225633  0.5266702287185615  1.0000
  O   O2        1.0  0.6994544053160906  0.8788956746918022  0.07204163800011454  1.0000
  O   O3        1.0  0.7688286108529121  0.937354967908963  0.5161608675300858  1.0000
  O   O4        1.0  0.36828644995257476  0.6408804682736614  0.009887075886911536  1.0000
  O   O5        1.0  0.7708133890611816  0.6404678693382789  0.805229715423527  1.0000
  O   O6        1.0  0.5095973844727671  0.9323083339201022  0.6906100837505635  1.0000
  O   O7        1.0  0.4448104668732872  0.12145830845039818  0.3040601803598428  1.0000
  O   O8        1.0  0.9058774133517031  0.6997508226984255  0.17182963848105867  1.0000
  O   O9        1.0  0.3994510930799138  0.2568798864365462  0.8095599420161154  1.0000
  O   O10       1.0  0.9167536977246693  0.7826831266823807  0.6630794858156597  1.0000
  O   O11       1.0  0.8663823106656103  0.9622792923709805  0.27924098279087844  1.0000
  O   O12       1.0  0.23880829076089638  0.37852359602442154  0.1954248649407069  1.0000
data_image83
_chemical_formula_structural       Na4C8N4O12
_chemical_formula_sum              "Na4 C8 N4 O12"
_cell_length_a       5.423166
_cell_length_b       3.6248270000000002
_cell_length_c       20.275782753631116
_cell_angle_alpha    88.79220736031418
_cell_angle_beta     90.0
_cell_angle_gamma    90.0

_space_group_name_H-M_alt    "P 1"
_space_group_IT_number       1

loop_
  _space_group_symop_operation_xyz
  'x, y, z'

loop_
  _atom_site_type_symbol
  _atom_site_label
  _atom_site_symmetry_multiplicity
  _atom_site_fract_x
  _atom_site_fract_y
  _atom_site_fract_z
  _atom_site_occupancy
  Na  Na1       1.0  0.7974858317652427  0.46087462032952753  0.9829424662617009  1.0000
  Na  Na2       1.0  0.10811919452651964  0.2371422129882672  0.5901594555515607  1.0000
  Na  Na3       1.0  0.44695192419941027  0.9388717480182733  0.15722289135712966  1.0000
  Na  Na4       1.0  0.12165964712877364  0.435121777939658  0.3481408030300652  1.0000
  C   C1        1.0  0.38302342465054073  0.637669249425501  0.49346557107588446  1.0000
  C   C2        1.0  0.8974950826444168  0.9205654143848467  0.11835602664866363  1.0000
  C   C3        1.0  0.7972391128062364  0.046276897105091544  0.4496614063970156  1.0000
  C   C4        1.0  0.24360831268643124  0.8269794765376444  0.9356676107342121  1.0000
  C   C5        1.0  0.6640208361019989  0.5459569520162456  0.8040724713563943  1.0000
  C   C6        1.0  0.6965573042693991  0.9252721432407524  0.6862514230804122  1.0000
  C   C7        1.0  0.5932276176108705  0.10654970565958699  0.3421312181414008  1.0000
  C   C8        1.0  0.07887300223564853  0.36478709823925315  0.16122918670308228  1.0000
  N   N1        1.0  0.3649431315657524  0.6561011555425427  0.4360498264376393  1.0000
  N   N2        1.0  0.11129949218642166  0.10669944364970751  0.11837752028903159  1.0000
  N   N3        1.0  0.7813434893671651  0.9421683544484188  0.3887936985633518  1.0000
  N   N4        1.0  0.040948906662804596  0.9450792297974878  0.9343066475234518  1.0000
  O   O1        1.0  0.38931481980502114  0.62294993592156  0.5561681542558554  1.0000
  O   O2        1.0  0.7503123109986144  0.9522355956988477  0.06954407161577403  1.0000
  O   O3        1.0  0.8747039226072746  0.9592943627958398  0.5039077525149791  1.0000
  O   O4        1.0  0.45519976978848575  0.6999381831428141  0.9371803247507683  1.0000
  O   O5        1.0  0.8634668084049013  0.6997328073160395  0.8221863644421009  1.0000
  O   O6        1.0  0.49621584826146614  0.9073914004833121  0.6678261949492837  1.0000
  O   O7        1.0  0.3537728479855989  0.030246414752293393  0.34289521444028953  1.0000
  O   O8        1.0  0.8703976043547302  0.5680899324778453  0.15685391076447844  1.0000
  O   O9        1.0  0.4947372898317708  0.45548011877823524  0.7714261668684438  1.0000
  O   O10       1.0  0.9093579552052682  0.9592965880572246  0.6702482776091202  1.0000
  O   O11       1.0  0.7131357465201703  0.22181457444489627  0.2916838010662129  1.0000
  O   O12       1.0  0.20847789552781915  0.4156747274278718  0.21264784266071696  1.0000
data_image84
_chemical_formula_structural       Na4C8N4O12
_chemical_formula_sum              "Na4 C8 N4 O12"
_cell_length_a       5.423166
_cell_length_b       3.6248270000000002
_cell_length_c       20.275782753631116
_cell_angle_alpha    88.79220736031418
_cell_angle_beta     90.0
_cell_angle_gamma    90.0

_space_group_name_H-M_alt    "P 1"
_space_group_IT_number       1

loop_
  _space_group_symop_operation_xyz
  'x, y, z'

loop_
  _atom_site_type_symbol
  _atom_site_label
  _atom_site_symmetry_multiplicity
  _atom_site_fract_x
  _atom_site_fract_y
  _atom_site_fract_z
  _atom_site_occupancy
  Na  Na1       1.0  0.843309681780231  0.5965681121156878  0.9526709762510907  1.0000
  Na  Na2       1.0  0.17472428911613302  0.8097424656278782  0.6196432676452702  1.0000
  Na  Na3       1.0  0.37730798194485937  0.06607584873885847  0.22215563087248041  1.0000
  Na  Na4       1.0  0.189624016424204  0.4983221508141875  0.32917426105278563  1.0000
  C   C1        1.0  0.26950454870305895  0.5281883413542434  0.4965895306767664  1.0000
  C   C2        1.0  0.8329162076788519  0.9395325954710856  0.09757957180031473  1.0000
  C   C3        1.0  0.8036033633953543  0.9352339252563692  0.4424082401159656  1.0000
  C   C4        1.0  0.2925581006941431  0.9047969458588404  0.9290920068454176  1.0000
  C   C5        1.0  0.7125868922139903  0.5048933787621236  0.8119261752472654  1.0000
  C   C6        1.0  0.7572720186355989  0.963633492075663  0.6688712018959131  1.0000
  C   C7        1.0  0.6988279977814307  0.09992809823420168  0.3261063333931107  1.0000
  C   C8        1.0  0.9776767615000217  0.4863937803117724  0.15684728612354115  1.0000
  N   N1        1.0  0.19940240678568513  0.46560307491235076  0.4429692680633657  1.0000
  N   N2        1.0  0.9928586469206091  0.20935591440677237  0.11303208914100904  1.0000
  N   N3        1.0  0.836551817734215  0.9753197215159379  0.37762578000260305  1.0000
  N   N4        1.0  0.10769527030675863  0.10410143558223073  0.9297111579978667  1.0000
  O   O1        1.0  0.350401178739336  0.5089100766879151  0.5512305362834803  1.0000
  O   O2        1.0  0.769978038395634  0.8489608543102989  0.042235131568165274  1.0000
  O   O3        1.0  0.7451398905552606  0.04283379218658098  0.49878314933637186  1.0000
  O   O4        1.0  0.4594788249016919  0.6477901840223956  0.9319223588496658  1.0000
  O   O5        1.0  0.9138113946860935  0.663636544906662  0.8264389319528709  1.0000
  O   O6        1.0  0.5420028409326063  0.061480417278540145  0.6700127263961911  1.0000
  O   O7        1.0  0.4597441243357579  0.9786120422145054  0.324576260916673  1.0000
  O   O8        1.0  0.7639455340863776  0.6886241592850239  0.15444803568951007  1.0000
  O   O9        1.0  0.5266646125638207  0.3816197527914849  0.8130837798306817  1.0000
  O   O10       1.0  0.9523667029268563  0.906975846006176  0.6992539194221172  1.0000
  O   O11       1.0  0.7628236975013255  0.29505222039455314  0.2786540890221566  1.0000
  O   O12       1.0  0.12029917183711863  0.5348742948626226  0.20530721163936935  1.0000
data_image85
_chemical_formula_structural       Na4C8N4O12
_chemical_formula_sum              "Na4 C8 N4 O12"
_cell_length_a       5.423166
_cell_length_b       3.6248270000000002
_cell_length_c       20.275782753631116
_cell_angle_alpha    88.79220736031418
_cell_angle_beta     90.0
_cell_angle_gamma    90.0

_space_group_name_H-M_alt    "P 1"
_space_group_IT_number       1

loop_
  _space_group_symop_operation_xyz
  'x, y, z'

loop_
  _atom_site_type_symbol
  _atom_site_label
  _atom_site_symmetry_multiplicity
  _atom_site_fract_x
  _atom_site_fract_y
  _atom_site_fract_z
  _atom_site_occupancy
  Na  Na1       1.0  0.7997688917645784  0.598329275282347  0.9877034149848338  1.0000
  Na  Na2       1.0  0.24672138209836358  0.8048436360284079  0.6232872113969123  1.0000
  Na  Na3       1.0  0.4402512721046658  0.10382489865680712  0.1493015376742036  1.0000
  Na  Na4       1.0  0.12062132351223798  0.37162138113193666  0.35850364758719394  1.0000
  C   C1        1.0  0.22865204343259976  0.332704353327828  0.5165947233634728  1.0000
  C   C2        1.0  0.7969957915711976  0.9800737242643687  0.09301539043248219  1.0000
  C   C3        1.0  0.719200226273232  0.9469910334749029  0.43913605105907405  1.0000
  C   C4        1.0  0.33454230924302664  0.981006434007173  0.9374833802041188  1.0000
  C   C5        1.0  0.6897917770933736  0.41374496013767725  0.8144450745903266  1.0000
  C   C6        1.0  0.9089039263648032  0.1597266895473355  0.6781255372360515  1.0000
  C   C7        1.0  0.6666718889748809  0.17325325646291279  0.3157176396698675  1.0000
  C   C8        1.0  0.9544291586515172  0.48778674869635696  0.15357983058956573  1.0000
  N   N1        1.0  0.12137148307471461  0.34556626139763624  0.46468576529702627  1.0000
  N   N2        1.0  0.9660827892308412  0.15074893753266194  0.12707929069597412  1.0000
  N   N3        1.0  0.7536292296731155  0.9555149424776256  0.3799003315969381  1.0000
  N   N4        1.0  0.1963280649396444  0.2256411729008727  0.9631747357055627  1.0000
  O   O1        1.0  0.3251645293951243  0.25398235239423284  0.5709777389134012  1.0000
  O   O2        1.0  0.6243747007522101  0.08346697392624791  0.05662046750511163  1.0000
  O   O3        1.0  0.7417746687399258  0.8643984521260576  0.5000279683487098  1.0000
  O   O4        1.0  0.4889538714485455  0.7523183472007076  0.9149656534443392  1.0000
  O   O5        1.0  0.9047615871556259  0.551435682993786  0.8258383986484287  1.0000
  O   O6        1.0  0.7493815424719045  0.28559796109931845  0.6513784752679512  1.0000
  O   O7        1.0  0.45484615615307317  0.06642754488840796  0.29876379393881114  1.0000
  O   O8        1.0  0.7285811946949144  0.611851761323375  0.1302123925848568  1.0000
  O   O9        1.0  0.5359302838674116  0.2611909416197831  0.7884951612337034  1.0000
  O   O10       1.0  0.007944919808419382  0.9216710781522156  0.7076506870660384  1.0000
  O   O11       1.0  0.8075865139821734  0.40093677491763735  0.28671477170556564  1.0000
  O   O12       1.0  0.08780652588866625  0.6205343966420918  0.19489813090633382  1.0000
data_image86
_chemical_formula_structural       Na4C8N4O12
_chemical_formula_sum              "Na4 C8 N4 O12"
_cell_length_a       5.423166
_cell_length_b       3.6248270000000002
_cell_length_c       20.275782753631116
_cell_angle_alpha    88.79220736031418
_cell_angle_beta     90.0
_cell_angle_gamma    90.0

_space_group_name_H-M_alt    "P 1"
_space_group_IT_number       1

loop_
  _space_group_symop_operation_xyz
  'x, y, z'

loop_
  _atom_site_type_symbol
  _atom_site_label
  _atom_site_symmetry_multiplicity
  _atom_site_fract_x
  _atom_site_fract_y
  _atom_site_fract_z
  _atom_site_occupancy
  Na  Na1       1.0  0.7840281471996482  0.42359207059303094  0.9828434110884663  1.0000
  Na  Na2       1.0  0.3222867802542395  0.633688144495822  0.6810621204192021  1.0000
  Na  Na3       1.0  0.4286764763501921  0.9920165021086402  0.16278096880124213  1.0000
  Na  Na4       1.0  0.17029319180885039  0.24517935513193567  0.33964308227503065  1.0000
  C   C1        1.0  0.3448843866726521  0.3305348355840998  0.5051231825217566  1.0000
  C   C2        1.0  0.8297540060634592  0.01876458611684151  0.10915465547039149  1.0000
  C   C3        1.0  0.7200520988280705  0.9184011580047522  0.4306379259236906  1.0000
  C   C4        1.0  0.22454258603028077  0.9921656340488761  0.9124833300090696  1.0000
  C   C5        1.0  0.6159215745255104  0.587055766041939  0.8011958343268981  1.0000
  C   C6        1.0  0.8254190047773157  0.20455409314352613  0.6906578939878405  1.0000
  C   C7        1.0  0.6343842104046049  0.04264875045038807  0.3137360641611624  1.0000
  C   C8        1.0  0.9945972342542667  0.5830582508044349  0.16211512039612985  1.0000
  N   N1        1.0  0.29290114399573314  0.15916455460474155  0.4538967864118304  1.0000
  N   N2        1.0  0.9842809848192093  0.305570781386011  0.11099890668464574  1.0000
  N   N3        1.0  0.7387009585341466  0.8673308083807587  0.37186831962490974  1.0000
  N   N4        1.0  0.02927836949329521  0.8625452721744383  0.9251783575777516  1.0000
  O   O1        1.0  0.4233208827128925  0.40822438261195293  0.5596335705931705  1.0000
  O   O2        1.0  0.6965614394276097  0.9557261856513448  0.06403919659713275  1.0000
  O   O3        1.0  0.7049553600973053  0.0022407203845168124  0.48545218867220447  1.0000
  O   O4        1.0  0.4222631111795148  0.17720218969679857  0.9212481959155947  1.0000
  O   O5        1.0  0.8034396802661024  0.5870628661873522  0.829807073294024  1.0000
  O   O6        1.0  0.7429322876955231  0.45302406798955097  0.6573984379467928  1.0000
  O   O7        1.0  0.45454304402615303  0.9260267580318422  0.2842360058526096  1.0000
  O   O8        1.0  0.7897429958179388  0.8051316660052048  0.16763635966848756  1.0000
  O   O9        1.0  0.43844303306471266  0.5466759903359986  0.7696512869443094  1.0000
  O   O10       1.0  0.02568099781207467  0.06221051021658153  0.7122841775277404  1.0000
  O   O11       1.0  0.7619232815935196  0.21896706582843084  0.2789909561709154  1.0000
  O   O12       1.0  0.13059384986230416  0.638731305396302  0.2088545950085199  1.0000
data_image87
_chemical_formula_structural       Na4C8N4O12
_chemical_formula_sum              "Na4 C8 N4 O12"
_cell_length_a       5.423166
_cell_length_b       3.6248270000000002
_cell_length_c       20.275782753631116
_cell_angle_alpha    88.79220736031418
_cell_angle_beta     90.0
_cell_angle_gamma    90.0

_space_group_name_H-M_alt    "P 1"
_space_group_IT_number       1

loop_
  _space_group_symop_operation_xyz
  'x, y, z'

loop_
  _atom_site_type_symbol
  _atom_site_label
  _atom_site_symmetry_multiplicity
  _atom_site_fract_x
  _atom_site_fract_y
  _atom_site_fract_z
  _atom_site_occupancy
  Na  Na1       1.0  0.7811195670590887  0.3928518976643507  0.9354132985342246  1.0000
  Na  Na2       1.0  0.2721507862213841  0.6049515343865426  0.6625517518139196  1.0000
  Na  Na3       1.0  0.398485571467416  0.9310285646607003  0.17982242426445685  1.0000
  Na  Na4       1.0  0.13631611440451552  0.4444217555846961  0.3131363291439953  1.0000
  C   C1        1.0  0.3875360110393531  0.4049219420503347  0.4735227774035423  1.0000
  C   C2        1.0  0.8087314349585617  0.030475691561412166  0.10731730440135401  1.0000
  C   C3        1.0  0.8449137558169197  0.8506889889316077  0.43872848210022364  1.0000
  C   C4        1.0  0.23802979992440854  0.11861164457045281  0.9573221817973362  1.0000
  C   C5        1.0  0.5166942178041384  0.733680515229659  0.8165613921450297  1.0000
  C   C6        1.0  0.8368644818216718  0.10229969397447913  0.6906862244324167  1.0000
  C   C7        1.0  0.6738040867170643  0.8839673884123767  0.33867483093889106  1.0000
  C   C8        1.0  0.025246893135467685  0.4752020497207272  0.16047097356678874  1.0000
  N   N1        1.0  0.39784471232204016  0.2684361252888259  0.42210544164209535  1.0000
  N   N2        1.0  0.9907825133882873  0.2653261787171154  0.10865772103619764  1.0000
  N   N3        1.0  0.8994691013206515  0.8254879628142358  0.3709999518753554  1.0000
  N   N4        1.0  0.09055001550255137  0.9276256092697457  0.9878995919847411  1.0000
  O   O1        1.0  0.36293358917445023  0.5977759184089579  0.5258303768921787  1.0000
  O   O2        1.0  0.5963363768102711  0.07385057572870779  0.08837708906972108  1.0000
  O   O3        1.0  0.9142972637917106  0.7990912307126692  0.4895741801496705  1.0000
  O   O4        1.0  0.38777958527504947  0.3160530120732836  0.9280638398205763  1.0000
  O   O5        1.0  0.7211541836515067  0.7256353110510835  0.8417438274498428  1.0000
  O   O6        1.0  0.6377234982389229  0.13542822271734245  0.713724823130177  1.0000
  O   O7        1.0  0.4312499014061497  0.7850161112984999  0.3292195878670407  1.0000
  O   O8        1.0  0.8216043684934922  0.7207213183583142  0.1608233185875465  1.0000
  O   O9        1.0  0.3416911463737611  0.7655985245417699  0.7728633978577005  1.0000
  O   O10       1.0  0.9962194149932424  0.2521242638173593  0.6530737943288099  1.0000
  O   O11       1.0  0.7565459684078121  0.9921164899154585  0.27701836746336667  1.0000
  O   O12       1.0  0.19522097530216426  0.48504650491994905  0.1998384111465391  1.0000
data_image88
_chemical_formula_structural       Na4C8N4O12
_chemical_formula_sum              "Na4 C8 N4 O12"
_cell_length_a       5.423166
_cell_length_b       3.6248270000000002
_cell_length_c       20.275782753631116
_cell_angle_alpha    88.79220736031418
_cell_angle_beta     90.0
_cell_angle_gamma    90.0

_space_group_name_H-M_alt    "P 1"
_space_group_IT_number       1

loop_
  _space_group_symop_operation_xyz
  'x, y, z'

loop_
  _atom_site_type_symbol
  _atom_site_label
  _atom_site_symmetry_multiplicity
  _atom_site_fract_x
  _atom_site_fract_y
  _atom_site_fract_z
  _atom_site_occupancy
  Na  Na1       1.0  0.7161752412350941  0.4645989085709177  0.9650564122588998  1.0000
  Na  Na2       1.0  0.3355038128509886  0.4925158648404953  0.6561735613080869  1.0000
  Na  Na3       1.0  0.5109614665668618  0.9489695701972948  0.18736730731261522  1.0000
  Na  Na4       1.0  0.1865838655405112  0.3945465503309523  0.3412141773940296  1.0000
  C   C1        1.0  0.3336308751060846  0.4253463446187926  0.4903583731018883  1.0000
  C   C2        1.0  0.8234783826059384  0.031309358661633424  0.09442316961837172  1.0000
  C   C3        1.0  0.7981118585361822  0.9644823914945707  0.4342938591705728  1.0000
  C   C4        1.0  0.24341185458692594  0.045908278405864644  0.9744081431161173  1.0000
  C   C5        1.0  0.48482180468991304  0.6854966265628198  0.8119374677875613  1.0000
  C   C6        1.0  0.8372237507093542  0.039391697563475825  0.6675842894563178  1.0000
  C   C7        1.0  0.6626899850864052  0.05179639008038195  0.3142481878566722  1.0000
  C   C8        1.0  0.048662378755016666  0.5062472097191362  0.14650474413787334  1.0000
  N   N1        1.0  0.34190016117359406  0.5664972404191129  0.4355226596085319  1.0000
  N   N2        1.0  0.01107645136962454  0.22130314022520492  0.10541396359547117  1.0000
  N   N3        1.0  0.8624202543291628  0.9609426767583287  0.36691472466137415  1.0000
  N   N4        1.0  0.0395651108998738  0.9307627125001336  0.9771101471276643  1.0000
  O   O1        1.0  0.3289887896258177  0.2981929089442812  0.548007839112633  1.0000
  O   O2        1.0  0.6352367281334659  0.08052292973487685  0.0623014062206666  1.0000
  O   O3        1.0  0.8127201690223846  0.01119471821763118  0.4921144451741393  1.0000
  O   O4        1.0  0.4389486347935944  0.1500459221599606  0.9505411733021975  1.0000
  O   O5        1.0  0.6496618026415236  0.8415874402939005  0.8433362246296952  1.0000
  O   O6        1.0  0.6308425492768486  0.07463973221692566  0.6818147812028773  1.0000
  O   O7        1.0  0.4674725923737972  0.9339639549356799  0.31717703808580294  1.0000
  O   O8        1.0  0.8501160370726807  0.73170494443834  0.14842043751822936  1.0000
  O   O9        1.0  0.2589251846072436  0.6003707492240676  0.7989511980534227  1.0000
  O   O10       1.0  0.00479464889370762  0.8539153334945326  0.6524600055387626  1.0000
  O   O11       1.0  0.7805068213852336  0.2253503285894778  0.26697257237950717  1.0000
  O   O12       1.0  0.25383478200662896  0.488807656860029  0.17544653179257746  1.0000
data_image89
_chemical_formula_structural       Na4C8N4O12
_chemical_formula_sum              "Na4 C8 N4 O12"
_cell_length_a       5.423166
_cell_length_b       3.6248270000000002
_cell_length_c       20.275782753631116
_cell_angle_alpha    88.79220736031418
_cell_angle_beta     90.0
_cell_angle_gamma    90.0

_space_group_name_H-M_alt    "P 1"
_space_group_IT_number       1

loop_
  _space_group_symop_operation_xyz
  'x, y, z'

loop_
  _atom_site_type_symbol
  _atom_site_label
  _atom_site_symmetry_multiplicity
  _atom_site_fract_x
  _atom_site_fract_y
  _atom_site_fract_z
  _atom_site_occupancy
  Na  Na1       1.0  0.7897256349578767  0.4193815530232836  0.9789969358660717  1.0000
  Na  Na2       1.0  0.39508596531926476  0.7725473064394849  0.6249112592264351  1.0000
  Na  Na3       1.0  0.4778724745758075  0.07205591594766446  0.16636497991042404  1.0000
  Na  Na4       1.0  0.053903198009132236  0.5269711710049885  0.3049424140674535  1.0000
  C   C1        1.0  0.2557658938519976  0.4101648932718507  0.5212475574429575  1.0000
  C   C2        1.0  0.8290686635779219  0.9873781855539534  0.09350990376849744  1.0000
  C   C3        1.0  0.8299469108862287  0.14536318280109717  0.4247120034528877  1.0000
  C   C4        1.0  0.2682565973389559  0.9272227988503263  0.9368332193903777  1.0000
  C   C5        1.0  0.5073393195721475  0.7273780994403657  0.8117377803766814  1.0000
  C   C6        1.0  0.9079831476956131  0.9288721915888857  0.7154699110423156  1.0000
  C   C7        1.0  0.6437770957836536  0.9662472632330248  0.31978435658979953  1.0000
  C   C8        1.0  0.05548828348975232  0.46691779927189514  0.1346758899217148  1.0000
  N   N1        1.0  0.29240622598411325  0.587628525105482  0.47273020020879103  1.0000
  N   N2        1.0  0.07012800687155096  0.15676242805022667  0.11119558983423117  1.0000
  N   N3        1.0  0.7458546174741614  0.22553128919660215  0.36923962867878724  1.0000
  N   N4        1.0  0.09379253024968004  0.024292007548453398  0.9092467899672977  1.0000
  O   O1        1.0  0.22275722634723288  0.24710981910701801  0.5718281873941116  1.0000
  O   O2        1.0  0.6821898915320164  0.13946840258938065  0.057022057451648456  1.0000
  O   O3        1.0  0.79392270470493  0.03886874046466966  0.48009285502119314  1.0000
  O   O4        1.0  0.4343402230935132  0.6996804354420216  0.9521638762821336  1.0000
  O   O5        1.0  0.7023746652925662  0.8336227307991482  0.8241469270813151  1.0000
  O   O6        1.0  0.7402528771475783  0.06045323005245651  0.6766766042831618  1.0000
  O   O7        1.0  0.41392837461094145  0.8927698089731538  0.32485567142705857  1.0000
  O   O8        1.0  0.7667403550592374  0.7112413655873723  0.14402365017452265  1.0000
  O   O9        1.0  0.35992504238402023  0.4658764670437596  0.8220178072881135  1.0000
  O   O10       1.0  0.05948566922472143  0.805109413581949  0.7485074815091642  1.0000
  O   O11       1.0  0.7751763353481916  0.9011303149570359  0.2708252274088555  1.0000
  O   O12       1.0  0.20511081516340757  0.6569174016315797  0.17401798783510802  1.0000
data_image90
_chemical_formula_structural       Na4C8N4O12
_chemical_formula_sum              "Na4 C8 N4 O12"
_cell_length_a       5.423166
_cell_length_b       3.6248270000000002
_cell_length_c       20.275782753631116
_cell_angle_alpha    88.79220736031418
_cell_angle_beta     90.0
_cell_angle_gamma    90.0

_space_group_name_H-M_alt    "P 1"
_space_group_IT_number       1

loop_
  _space_group_symop_operation_xyz
  'x, y, z'

loop_
  _atom_site_type_symbol
  _atom_site_label
  _atom_site_symmetry_multiplicity
  _atom_site_fract_x
  _atom_site_fract_y
  _atom_site_fract_z
  _atom_site_occupancy
  Na  Na1       1.0  0.7042762904255533  0.4145901922784001  0.9257476789818094  1.0000
  Na  Na2       1.0  0.6048701475238301  0.7391566733886213  0.6033927198565063  1.0000
  Na  Na3       1.0  0.5168694472656619  0.24527239196412295  0.19896969279766816  1.0000
  Na  Na4       1.0  0.9734789912830121  0.4017341369075925  0.317985107706706  1.0000
  C   C1        1.0  0.2199152830513031  0.22010289237442193  0.5495189374017727  1.0000
  C   C2        1.0  0.8253381470884191  0.9893483551854567  0.10113970355969526  1.0000
  C   C3        1.0  0.7366502796555701  0.935361157440933  0.4352636936959777  1.0000
  C   C4        1.0  0.19339759913988064  0.8885149103389121  0.9319953502193147  1.0000
  C   C5        1.0  0.6487865959725794  0.6413337528458444  0.7964818464347205  1.0000
  C   C6        1.0  0.976616853055026  0.08740237195911371  0.7045267542261244  1.0000
  C   C7        1.0  0.5496873674982957  0.126730053035641  0.3232589542719597  1.0000
  C   C8        1.0  0.9650298218750332  0.49144248582902805  0.1602961078733962  1.0000
  N   N1        1.0  0.31205020340901357  0.12219813460551099  0.49951998179224316  1.0000
  N   N2        1.0  0.0010820251065355446  0.2674499458311216  0.11117407238266597  1.0000
  N   N3        1.0  0.6701308507022616  0.13583304075538907  0.3915862334066965  1.0000
  N   N4        1.0  0.02710227631286677  0.06454211377087438  0.9051132970794094  1.0000
  O   O1        1.0  0.21601500863027895  0.3343363606512637  0.6067439706040386  1.0000
  O   O2        1.0  0.7946368055189346  0.9373333359232516  0.03989079388155714  1.0000
  O   O3        1.0  0.8087024636268654  0.7307274451147096  0.4799594486423587  1.0000
  O   O4        1.0  0.39539666559401526  0.8395199135171985  0.9514254506921538  1.0000
  O   O5        1.0  0.8157152432104977  0.8708543778809742  0.7912527105401399  1.0000
  O   O6        1.0  0.7761579561573587  0.195084190760638  0.680631147863946  1.0000
  O   O7        1.0  0.32799093541204666  0.14388054538540063  0.3128478506149862  1.0000
  O   O8        1.0  0.7107734144215003  0.8144268892887613  0.15548805962936169  1.0000
  O   O9        1.0  0.49176386994686133  0.44046561418748237  0.781968668615289  1.0000
  O   O10       1.0  0.1772264321098591  0.007136496084127586  0.7279040439657608  1.0000
  O   O11       1.0  0.722437630424519  0.014874317168425799  0.2830511738177868  1.0000
  O   O12       1.0  0.10088638567982412  0.5992917068266985  0.20372788780292136  1.0000
data_image91
_chemical_formula_structural       Na4C8N4O12
_chemical_formula_sum              "Na4 C8 N4 O12"
_cell_length_a       5.423166
_cell_length_b       3.6248270000000002
_cell_length_c       20.275782753631116
_cell_angle_alpha    88.79220736031418
_cell_angle_beta     90.0
_cell_angle_gamma    90.0

_space_group_name_H-M_alt    "P 1"
_space_group_IT_number       1

loop_
  _space_group_symop_operation_xyz
  'x, y, z'

loop_
  _atom_site_type_symbol
  _atom_site_label
  _atom_site_symmetry_multiplicity
  _atom_site_fract_x
  _atom_site_fract_y
  _atom_site_fract_z
  _atom_site_occupancy
  Na  Na1       1.0  0.7027607271818972  0.3768139756970348  0.9239939533602672  1.0000
  Na  Na2       1.0  0.7005463831349712  0.5811909732993638  0.5614524709847661  1.0000
  Na  Na3       1.0  0.48578850929158746  0.5691695134927932  0.20893468874587834  1.0000
  Na  Na4       1.0  0.920555560001428  0.4546041517031084  0.3584279731587536  1.0000
  C   C1        1.0  0.304527160253026  0.1244190264431928  0.5601309760395262  1.0000
  C   C2        1.0  0.8294240818962195  0.14805317185634237  0.07987684669078532  1.0000
  C   C3        1.0  0.6797152971077471  0.8912414285544245  0.45050790335988666  1.0000
  C   C4        1.0  0.27233966455440806  0.9000417042192853  0.9312390306096707  1.0000
  C   C5        1.0  0.6050533883080426  0.6603743106611375  0.8038667191299479  1.0000
  C   C6        1.0  0.009137524145166775  0.9410813633671875  0.6887085012636732  1.0000
  C   C7        1.0  0.46992634909417785  0.9229052728185215  0.33973784004590757  1.0000
  C   C8        1.0  0.009971299956989421  0.8085157915467025  0.1486403329193783  1.0000
  N   N1        1.0  0.500850042597295  0.04923512341864189  0.5281093322144621  1.0000
  N   N2        1.0  0.9824692600604996  0.45659065276844935  0.09668707155214529  1.0000
  N   N3        1.0  0.5798178484580803  0.9881191490585856  0.39596609099426566  1.0000
  N   N4        1.0  0.06995765015845712  0.051193693511498495  0.9175182659776419  1.0000
  O   O1        1.0  0.1037661591055192  0.2580986291689238  0.5719559034800982  1.0000
  O   O2        1.0  0.7602090392767809  0.04812841974374138  0.02675657764292727  1.0000
  O   O3        1.0  0.8687139829556418  0.7448688622961469  0.46195107468740754  1.0000
  O   O4        1.0  0.4802405151422779  0.8194456135491747  0.9461548766106688  1.0000
  O   O5        1.0  0.8039885814855788  0.7775997205902109  0.809364603136268  1.0000
  O   O6        1.0  0.8249212371680384  0.04060283773210793  0.6660157070214453  1.0000
  O   O7        1.0  0.23802587368566527  0.02201397765784563  0.3421541346322986  1.0000
  O   O8        1.0  0.7531094442126564  0.9297278903010919  0.1412404027817909  1.0000
  O   O9        1.0  0.40112192325529694  0.508662553829297  0.8060138810066692  1.0000
  O   O10       1.0  0.19162033229898334  0.8879597556218797  0.713609805614376  1.0000
  O   O11       1.0  0.5937010565242851  0.7213381134628124  0.3025507362357296  1.0000
  O   O12       1.0  0.14755460399197098  0.9389871738099558  0.19015881959479045  1.0000
data_image92
_chemical_formula_structural       Na4C8N4O12
_chemical_formula_sum              "Na4 C8 N4 O12"
_cell_length_a       5.423166
_cell_length_b       3.6248270000000002
_cell_length_c       20.275782753631116
_cell_angle_alpha    88.79220736031418
_cell_angle_beta     90.0
_cell_angle_gamma    90.0

_space_group_name_H-M_alt    "P 1"
_space_group_IT_number       1

loop_
  _space_group_symop_operation_xyz
  'x, y, z'

loop_
  _atom_site_type_symbol
  _atom_site_label
  _atom_site_symmetry_multiplicity
  _atom_site_fract_x
  _atom_site_fract_y
  _atom_site_fract_z
  _atom_site_occupancy
  Na  Na1       1.0  0.7516023691685292  0.4921512436288511  0.9343440853012094  1.0000
  Na  Na2       1.0  0.9559128846497333  0.6951037372818297  0.5684636301676018  1.0000
  Na  Na3       1.0  0.3752689656580114  0.444506452357058  0.1965110700826491  1.0000
  Na  Na4       1.0  0.9532573306380405  0.4376459242861448  0.3481503979868791  1.0000
  C   C1        1.0  0.36144298189892343  0.0488070732806718  0.5203813322814141  1.0000
  C   C2        1.0  0.8396073120225678  0.3143110972496165  0.09249279657130649  1.0000
  C   C3        1.0  0.6679127699117107  0.9445705590955756  0.4362844590344512  1.0000
  C   C4        1.0  0.18608905060651781  0.7869360520781291  0.9342839467415394  1.0000
  C   C5        1.0  0.6126707252622682  0.6519146610383718  0.8055579658326077  1.0000
  C   C6        1.0  0.046706433022557725  0.9405336744275327  0.6977828727538327  1.0000
  C   C7        1.0  0.42118855268129557  0.8716525165505707  0.3471934025570053  1.0000
  C   C8        1.0  0.9187499539014203  0.7755614631666361  0.162756068003768  1.0000
  N   N1        1.0  0.5567888858189355  0.8838146242717183  0.5189813614305802  1.0000
  N   N2        1.0  0.9895447163950082  0.4749688254367821  0.13621828216596366  1.0000
  N   N3        1.0  0.531052654474736  0.10141574021531835  0.39993041813503216  1.0000
  N   N4        1.0  0.049705131956751414  0.989414036119773  0.9064120248326133  1.0000
  O   O1        1.0  0.1969041049055061  0.23602295227360903  0.5368230223931411  1.0000
  O   O2        1.0  0.7268980873118527  0.4979210733014169  0.051497092957508706  1.0000
  O   O3        1.0  0.8797414917375945  0.8368047143828727  0.4408638555439275  1.0000
  O   O4        1.0  0.3687427518580244  0.6012578584933915  0.9559018812137383  1.0000
  O   O5        1.0  0.796908169477295  0.8040622948212193  0.7962478041149526  1.0000
  O   O6        1.0  0.837634713793446  0.9455792539719741  0.673087137323781  1.0000
  O   O7        1.0  0.200547874160865  0.8932456083045203  0.33778104718345386  1.0000
  O   O8        1.0  0.7902437370541809  0.9779692312860925  0.10892546276213913  1.0000
  O   O9        1.0  0.48573298450412794  0.44367608293231264  0.8268797572113462  1.0000
  O   O10       1.0  0.24864021550870286  0.013769453173158697  0.7147321563509907  1.0000
  O   O11       1.0  0.5395161791983986  0.5948377478750727  0.3039110138886392  1.0000
  O   O12       1.0  0.8701606052600668  0.8535323548041962  0.22254970446323133  1.0000
data_image93
_chemical_formula_structural       Na4C8N4O12
_chemical_formula_sum              "Na4 C8 N4 O12"
_cell_length_a       5.423166
_cell_length_b       3.6248270000000002
_cell_length_c       20.275782753631116
_cell_angle_alpha    88.79220736031418
_cell_angle_beta     90.0
_cell_angle_gamma    90.0

_space_group_name_H-M_alt    "P 1"
_space_group_IT_number       1

loop_
  _space_group_symop_operation_xyz
  'x, y, z'

loop_
  _atom_site_type_symbol
  _atom_site_label
  _atom_site_symmetry_multiplicity
  _atom_site_fract_x
  _atom_site_fract_y
  _atom_site_fract_z
  _atom_site_occupancy
  Na  Na1       1.0  0.6680507467820527  0.3268737303377822  0.9409061493700345  1.0000
  Na  Na2       1.0  0.03460487037494861  0.7782171836147133  0.5556628209461243  1.0000
  Na  Na3       1.0  0.4023182669213308  0.5091895311116469  0.21803279510340015  1.0000
  Na  Na4       1.0  0.8585483810274934  0.09793810936012881  0.33188511121668657  1.0000
  C   C1        1.0  0.4561892239560863  0.17479767400319446  0.5205544908991873  1.0000
  C   C2        1.0  0.8846040993305067  0.4229153081489613  0.10456299083724319  1.0000
  C   C3        1.0  0.6393047641010987  0.9113381289314004  0.4258738986628175  1.0000
  C   C4        1.0  0.20002568278550337  0.785064815812013  0.9633351275384567  1.0000
  C   C5        1.0  0.49769257681707924  0.6493446710635726  0.813612989663096  1.0000
  C   C6        1.0  0.1353107306418173  0.8901654397328991  0.6701244846688269  1.0000
  C   C7        1.0  0.4373211307864856  0.8934056513380596  0.33186604479177134  1.0000
  C   C8        1.0  0.8364553043390286  0.922939103387298  0.17250713200258308  1.0000
  N   N1        1.0  0.5660196862950836  0.9203508460138742  0.4989601095224559  1.0000
  N   N2        1.0  0.9648967807916198  0.70410821450962  0.1246504632950518  1.0000
  N   N3        1.0  0.4891739383366849  0.15701879538487218  0.4006668972995616  1.0000
  N   N4        1.0  0.01416111869766934  0.8863867804790998  0.9391862194330743  1.0000
  O   O1        1.0  0.26085318758910675  0.27475342506686484  0.5382887970070953  1.0000
  O   O2        1.0  0.9234524375254893  0.2219117408465432  0.06031473938893139  1.0000
  O   O3        1.0  0.7791173840170815  0.6482499870520018  0.41656502183007854  1.0000
  O   O4        1.0  0.3964940822980746  0.7259105032195379  0.9868202603743117  1.0000
  O   O5        1.0  0.6449554728022734  0.8543393472906963  0.8412629235368441  1.0000
  O   O6        1.0  0.9658210030518319  0.7018230914276871  0.6487604299805532  1.0000
  O   O7        1.0  0.29045293010189743  0.10641625006220679  0.303035525346229  1.0000
  O   O8        1.0  0.6900325720807969  0.1898227368808718  0.15422629467458546  1.0000
  O   O9        1.0  0.33818374796111594  0.4836780704388804  0.7822858261826044  1.0000
  O   O10       1.0  0.3372555611099002  0.9919461721467718  0.6912780286135709  1.0000
  O   O11       1.0  0.579885697968432  0.6625409572269714  0.3116236625182964  1.0000
  O   O12       1.0  0.8963649564380087  0.921275326027515  0.2300058629701839  1.0000
data_image94
_chemical_formula_structural       Na4C8N4O12
_chemical_formula_sum              "Na4 C8 N4 O12"
_cell_length_a       5.423166
_cell_length_b       3.6248270000000002
_cell_length_c       20.275782753631116
_cell_angle_alpha    88.79220736031418
_cell_angle_beta     90.0
_cell_angle_gamma    90.0

_space_group_name_H-M_alt    "P 1"
_space_group_IT_number       1

loop_
  _space_group_symop_operation_xyz
  'x, y, z'

loop_
  _atom_site_type_symbol
  _atom_site_label
  _atom_site_symmetry_multiplicity
  _atom_site_fract_x
  _atom_site_fract_y
  _atom_site_fract_z
  _atom_site_occupancy
  Na  Na1       1.0  0.7216545505474365  0.2356012048598206  0.9143414590239273  1.0000
  Na  Na2       1.0  0.04349356883671266  0.6411219819613535  0.5238381741493348  1.0000
  Na  Na3       1.0  0.3448456322441259  0.7150576687381847  0.21978968356440226  1.0000
  Na  Na4       1.0  0.9373947159154801  0.24067535516810568  0.3544551622430073  1.0000
  C   C1        1.0  0.4744449517949997  0.18269582806092277  0.5485410368304908  1.0000
  C   C2        1.0  0.7638285846855037  0.5515666058619169  0.06772191628721536  1.0000
  C   C3        1.0  0.6810230542704943  0.5875007650472485  0.4075061892517685  1.0000
  C   C4        1.0  0.17485704759781706  0.919859004926391  0.9619986258518912  1.0000
  C   C5        1.0  0.3824435615008853  0.6213576688389828  0.8167520136873746  1.0000
  C   C6        1.0  0.23820924325216386  0.677758930160522  0.6823666890254001  1.0000
  C   C7        1.0  0.5045804965932265  0.9497186806078263  0.32986982314570884  1.0000
  C   C8        1.0  0.8309551406399017  0.9246036534158697  0.1630620672058753  1.0000
  N   N1        1.0  0.708699764634283  0.16047673195049894  0.5388884478657884  1.0000
  N   N2        1.0  0.9160194321482185  0.7104217712781629  0.0983650920324346  1.0000
  N   N3        1.0  0.46195989155830497  0.7055622748352908  0.4221647624377985  1.0000
  N   N4        1.0  0.9715948394753859  0.8298446019329905  0.934391554454935  1.0000
  O   O1        1.0  0.26058474485289135  0.27612850858726734  0.5582412614320228  1.0000
  O   O2        1.0  0.6329884955868165  0.4165692060054541  0.03034494798275511  1.0000
  O   O3        1.0  0.8891367590048569  0.7445955838505987  0.423674389302796  1.0000
  O   O4        1.0  0.33732857009451983  0.01812080383895842  0.9931597539566863  1.0000
  O   O5        1.0  0.43856095174199544  0.8056336489487049  0.8626975836109356  1.0000
  O   O6        1.0  0.055496919299323766  0.5247325050263301  0.6936115012859742  1.0000
  O   O7        1.0  0.33117104788651225  0.18677114251287819  0.31486267593591516  1.0000
  O   O8        1.0  0.5982713822798252  0.9340104282824594  0.1671479704058738  1.0000
  O   O9        1.0  0.35449149121402485  0.3595081089866003  0.7892746363451439  1.0000
  O   O10       1.0  0.41526917100969385  0.8907703671239162  0.6731144431899774  1.0000
  O   O11       1.0  0.6798586355061206  0.8149750850880644  0.3023498562134663  1.0000
  O   O12       1.0  0.9953847972608145  0.047241698770982055  0.19665248452262704  1.0000
data_image95
_chemical_formula_structural       Na4C8N4O12
_chemical_formula_sum              "Na4 C8 N4 O12"
_cell_length_a       5.423166
_cell_length_b       3.6248270000000002
_cell_length_c       20.275782753631116
_cell_angle_alpha    88.79220736031418
_cell_angle_beta     90.0
_cell_angle_gamma    90.0

_space_group_name_H-M_alt    "P 1"
_space_group_IT_number       1

loop_
  _space_group_symop_operation_xyz
  'x, y, z'

loop_
  _atom_site_type_symbol
  _atom_site_label
  _atom_site_symmetry_multiplicity
  _atom_site_fract_x
  _atom_site_fract_y
  _atom_site_fract_z
  _atom_site_occupancy
  Na  Na1       1.0  0.5671157698393166  0.29575131133617205  0.9553321637590477  1.0000
  Na  Na2       1.0  0.07455351226615821  0.6654233020891064  0.5568574830668424  1.0000
  Na  Na3       1.0  0.31179707628607894  0.6147305677702456  0.22385565333950283  1.0000
  Na  Na4       1.0  0.9871913413289622  0.5312181695600999  0.3363627536299938  1.0000
  C   C1        1.0  0.5117116426011924  0.1555233541370915  0.5274710517029799  1.0000
  C   C2        1.0  0.745108022203542  0.6614203790453073  0.09067379978634227  1.0000
  C   C3        1.0  0.8001148327238761  0.7641931307516037  0.42826865320963353  1.0000
  C   C4        1.0  0.06296126589872619  0.7619572614947651  0.9590412035036824  1.0000
  C   C5        1.0  0.5590493646571576  0.5861068815209127  0.8143739331971983  1.0000
  C   C6        1.0  0.10368049256976075  0.5285906335570127  0.6716117792679817  1.0000
  C   C7        1.0  0.472722137888632  0.929409296044787  0.3338325907590034  1.0000
  C   C8        1.0  0.846040035087124  0.014163258194966666  0.1677169445332543  1.0000
  N   N1        1.0  0.6880943663695424  0.0708827790475548  0.5610031941604323  1.0000
  N   N2        1.0  0.9389211311639996  0.7181376311122867  0.12014267915720289  1.0000
  N   N3        1.0  0.5905631566936476  0.887884830514268  0.40342324332824203  1.0000
  N   N4        1.0  0.8409823020313024  0.7951921899935112  0.9370930504866641  1.0000
  O   O1        1.0  0.29914689484688245  0.19087001983212293  0.5074469460803145  1.0000
  O   O2        1.0  0.6658716372978408  0.5228008520733397  0.04656006233231835  1.0000
  O   O3        1.0  0.03714236249442315  0.6632392881734667  0.43542194197887857  1.0000
  O   O4        1.0  0.2735635869371687  0.7625604028757506  0.9838002497432283  1.0000
  O   O5        1.0  0.5273748551405936  0.8643087671686519  0.8436622930155951  1.0000
  O   O6        1.0  0.8834711893211689  0.450729910534414  0.6643780089879564  1.0000
  O   O7        1.0  0.2427460386813314  0.9258857192307657  0.31488799143425955  1.0000
  O   O8        1.0  0.5861132593550117  0.06359281293751873  0.1571183258995989  1.0000
  O   O9        1.0  0.6101523001569467  0.44762770226699766  0.7619149464100448  1.0000
  O   O10       1.0  0.3187557822219613  0.5930765130715732  0.6708179923585756  1.0000
  O   O11       1.0  0.6426791252194815  0.9414641010628066  0.2934382512806847  1.0000
  O   O12       1.0  0.015326257901761082  0.14880335504553788  0.20423549325682167  1.0000
data_image96
_chemical_formula_structural       Na4C8N4O12
_chemical_formula_sum              "Na4 C8 N4 O12"
_cell_length_a       5.423166
_cell_length_b       3.6248270000000002
_cell_length_c       20.275782753631116
_cell_angle_alpha    88.79220736031418
_cell_angle_beta     90.0
_cell_angle_gamma    90.0

_space_group_name_H-M_alt    "P 1"
_space_group_IT_number       1

loop_
  _space_group_symop_operation_xyz
  'x, y, z'

loop_
  _atom_site_type_symbol
  _atom_site_label
  _atom_site_symmetry_multiplicity
  _atom_site_fract_x
  _atom_site_fract_y
  _atom_site_fract_z
  _atom_site_occupancy
  Na  Na1       1.0  0.5704309099334088  0.12681678911234373  0.9562231023519061  1.0000
  Na  Na2       1.0  0.03177146210693305  0.9354431992497241  0.5376050632723399  1.0000
  Na  Na3       1.0  0.2566196966447638  0.5286362536441718  0.19475944247599633  1.0000
  Na  Na4       1.0  0.9044430103153961  0.5278200648787827  0.30182995622950115  1.0000
  C   C1        1.0  0.5668352929128833  0.23359150037800802  0.5378180143878357  1.0000
  C   C2        1.0  0.7369927997476213  0.5663284316279917  0.07678220030342575  1.0000
  C   C3        1.0  0.704205839852794  0.7953284161046221  0.43569722367141894  1.0000
  C   C4        1.0  0.03609054230113751  0.6388609316234749  0.9384966961580801  1.0000
  C   C5        1.0  0.7068157224047419  0.7592558350250708  0.8268973304558044  1.0000
  C   C6        1.0  0.18146412255323985  0.5175133606069091  0.6683733529815373  1.0000
  C   C7        1.0  0.4625500587142296  0.016475208515788875  0.3518408853491788  1.0000
  C   C8        1.0  0.851519995977189  0.851972368174645  0.17277921592248316  1.0000
  N   N1        1.0  0.6673425750368444  0.9664262695097725  0.5662157135178191  1.0000
  N   N2        1.0  0.8920446166153546  0.6461512211103171  0.11085538847117848  1.0000
  N   N3        1.0  0.5003938503356566  0.9168093105026873  0.4127479262564023  1.0000
  N   N4        1.0  0.8146164433681551  0.6987916165170098  0.9408042384900944  1.0000
  O   O1        1.0  0.369839657142552  0.43969895005459936  0.52753366476107  1.0000
  O   O2        1.0  0.5479693399164896  0.5017612259986997  0.051548353930461976  1.0000
  O   O3        1.0  0.9238685850544992  0.7479123048411784  0.43712484263683254  1.0000
  O   O4        1.0  0.2568909378474774  0.6001302834711191  0.9378694019144566  1.0000
  O   O5        1.0  0.4999025504907268  0.8895678761905956  0.8362517997030836  1.0000
  O   O6        1.0  0.03499713259674353  0.3783223407608469  0.6336020969195713  1.0000
  O   O7        1.0  0.2674390617137286  0.9179789529951132  0.3313345248982052  1.0000
  O   O8        1.0  0.624535178756571  0.9073552188510103  0.1910639157190789  1.0000
  O   O9        1.0  0.878311424902174  0.5979536217977443  0.8063049488549612  1.0000
  O   O10       1.0  0.33207730301184  0.688234412987489  0.6995427965504357  1.0000
  O   O11       1.0  0.6518833927985814  0.12209334718214349  0.3233214852273794  1.0000
  O   O12       1.0  0.02252592737073478  0.99400665590061  0.2059656000058502  1.0000
data_image97
_chemical_formula_structural       Na4C8N4O12
_chemical_formula_sum              "Na4 C8 N4 O12"
_cell_length_a       5.423166
_cell_length_b       3.6248270000000002
_cell_length_c       20.275782753631116
_cell_angle_alpha    88.79220736031418
_cell_angle_beta     90.0
_cell_angle_gamma    90.0

_space_group_name_H-M_alt    "P 1"
_space_group_IT_number       1

loop_
  _space_group_symop_operation_xyz
  'x, y, z'

loop_
  _atom_site_type_symbol
  _atom_site_label
  _atom_site_symmetry_multiplicity
  _atom_site_fract_x
  _atom_site_fract_y
  _atom_site_fract_z
  _atom_site_occupancy
  Na  Na1       1.0  0.526716662581423  0.04700679135609942  0.9284195069973166  1.0000
  Na  Na2       1.0  0.0421108847756075  0.1611659980742881  0.5211095882138761  1.0000
  Na  Na3       1.0  0.3423117187344481  0.21442131132716402  0.14314324652328764  1.0000
  Na  Na4       1.0  0.9674341578489838  0.6374204555040994  0.28575506237541115  1.0000
  C   C1        1.0  0.6039265175569133  0.16114962697615431  0.5812756448662681  1.0000
  C   C2        1.0  0.6874328800644787  0.41418894738029954  0.07294625805129828  1.0000
  C   C3        1.0  0.5971486734943352  0.7524009133251113  0.4531727867830664  1.0000
  C   C4        1.0  0.0277059115656062  0.6975921936582957  0.9464956987062865  1.0000
  C   C5        1.0  0.726981980250241  0.952243568506658  0.7987594302014372  1.0000
  C   C6        1.0  0.23233990253374093  0.6629814566317461  0.6936362132402533  1.0000
  C   C7        1.0  0.44762434847516736  0.16534197231007353  0.3474199792638943  1.0000
  C   C8        1.0  0.7944424844032912  0.7703773433982626  0.16660019058366946  1.0000
  N   N1        1.0  0.7502301126401942  0.046005567572771966  0.6249839209427895  1.0000
  N   N2        1.0  0.8367359734062847  0.6018521120455473  0.1008673022634925  1.0000
  N   N3        1.0  0.394766048481906  0.7387505168980032  0.4277839332699616  1.0000
  N   N4        1.0  0.8168717681065701  0.6311576073831094  0.9468727838643672  1.0000
  O   O1        1.0  0.4382348161039865  0.24600128030250779  0.5414537363561603  1.0000
  O   O2        1.0  0.5107089813092447  0.26327417545337095  0.05158037373357938  1.0000
  O   O3        1.0  0.796358538072546  0.6943280323438978  0.47386359737227673  1.0000
  O   O4        1.0  0.2574499469947147  0.6800732787585735  0.9437861661100427  1.0000
  O   O5        1.0  0.5752433077427329  0.8531763988267558  0.8278790989417575  1.0000
  O   O6        1.0  0.12641472519880614  0.6776197024156687  0.6429762546890994  1.0000
  O   O7        1.0  0.24032024630473958  0.28933428772452263  0.33227686040052046  1.0000
  O   O8        1.0  0.5832774450312586  0.701025592247354  0.192452553457147  1.0000
  O   O9        1.0  0.9256350220891747  0.03703577462732155  0.7725829193484757  1.0000
  O   O10       1.0  0.3315422234249086  0.5255258731960795  0.7396940744475882  1.0000
  O   O11       1.0  0.650573662158937  0.0677561878312809  0.32973600692990096  1.0000
  O   O12       1.0  0.9729726063707883  0.8709755377348103  0.19400035934077667  1.0000
data_image98
_chemical_formula_structural       Na4C8N4O12
_chemical_formula_sum              "Na4 C8 N4 O12"
_cell_length_a       5.423166
_cell_length_b       3.6248270000000002
_cell_length_c       20.275782753631116
_cell_angle_alpha    88.79220736031418
_cell_angle_beta     90.0
_cell_angle_gamma    90.0

_space_group_name_H-M_alt    "P 1"
_space_group_IT_number       1

loop_
  _space_group_symop_operation_xyz
  'x, y, z'

loop_
  _atom_site_type_symbol
  _atom_site_label
  _atom_site_symmetry_multiplicity
  _atom_site_fract_x
  _atom_site_fract_y
  _atom_site_fract_z
  _atom_site_occupancy
  Na  Na1       1.0  0.49807140777875136  0.7731640131943607  0.9608277300805653  1.0000
  Na  Na2       1.0  0.9738577177092261  0.21049529056062566  0.5011751013685473  1.0000
  Na  Na3       1.0  0.3048707695762854  0.31598643616858735  0.12579710900511057  1.0000
  Na  Na4       1.0  0.9718406097451613  0.7963287057391312  0.3355171276108819  1.0000
  C   C1        1.0  0.4898669326236424  0.09495226788804145  0.5746764536944144  1.0000
  C   C2        1.0  0.6763133657282476  0.41686484602450335  0.08833015213983719  1.0000
  C   C3        1.0  0.6176995753265142  0.7763624449391284  0.43322351998842545  1.0000
  C   C4        1.0  0.9958268108284567  0.5324988761670598  0.9359461899180569  1.0000
  C   C5        1.0  0.7286077597922912  0.017366952237890088  0.7627158977454845  1.0000
  C   C6        1.0  0.2432991774344404  0.522142312172574  0.7118144751736994  1.0000
  C   C7        1.0  0.4786670374775866  0.35072470641546505  0.32030372021989434  1.0000
  C   C8        1.0  0.879116091000156  0.6957623350833444  0.18463947047079254  1.0000
  N   N1        1.0  0.6531094365469508  0.31625321120824457  0.587636741462214  1.0000
  N   N2        1.0  0.8859636237948125  0.5389550733109758  0.1102967394564518  1.0000
  N   N3        1.0  0.3998535186038812  0.7816524539907996  0.4427532145565363  1.0000
  N   N4        1.0  0.8713808873826596  0.31740908848683375  0.9030556471601374  1.0000
  O   O1        1.0  0.31278206464847735  0.9120504365187357  0.5675720742222695  1.0000
  O   O2        1.0  0.5666393383278364  0.282093652287446  0.0419535181987285  1.0000
  O   O3        1.0  0.8523163225951624  0.7600870270448079  0.4291912194823861  1.0000
  O   O4        1.0  0.1601428234608834  0.6543025234876175  0.9733654744042098  1.0000
  O   O5        1.0  0.5722339089499757  0.8265218619894126  0.7930298889974056  1.0000
  O   O6        1.0  0.08791666331530279  0.717335622091315  0.6801000924289766  1.0000
  O   O7        1.0  0.31521720672261194  0.5506661396755435  0.3180044444595783  1.0000
  O   O8        1.0  0.7158241467197359  0.6000168783587976  0.22071620759712535  1.0000
  O   O9        1.0  0.8930844074664315  0.22448166271278036  0.7625972807660993  1.0000
  O   O10       1.0  0.3699456340106462  0.34259608177301826  0.741932883544384  1.0000
  O   O11       1.0  0.6756200039608404  0.2878215534439108  0.3425266730766178  1.0000
  O   O12       1.0  0.07066641789955168  0.8795868836812903  0.1924278290392115  1.0000
data_image99
_chemical_formula_structural       Na4C8N4O12
_chemical_formula_sum              "Na4 C8 N4 O12"
_cell_length_a       5.423166
_cell_length_b       3.6248270000000002
_cell_length_c       20.275782753631116
_cell_angle_alpha    88.79220736031418
_cell_angle_beta     90.0
_cell_angle_gamma    90.0

_space_group_name_H-M_alt    "P 1"
_space_group_IT_number       1

loop_
  _space_group_symop_operation_xyz
  'x, y, z'

loop_
  _atom_site_type_symbol
  _atom_site_label
  _atom_site_symmetry_multiplicity
  _atom_site_fract_x
  _atom_site_fract_y
  _atom_site_fract_z
  _atom_site_occupancy
  Na  Na1       1.0  0.5223980206572534  0.8475712094169481  0.9516130760094361  1.0000
  Na  Na2       1.0  0.09058299821059738  0.2856291670716682  0.5253714495699002  1.0000
  Na  Na3       1.0  0.21254527300432421  0.0384451546266559  0.14830307359000805  1.0000
  Na  Na4       1.0  0.08224741222624865  0.8725142828928695  0.3490273490865577  1.0000
  C   C1        1.0  0.46068761202237407  0.014762854327133423  0.5793532374921525  1.0000
  C   C2        1.0  0.7562891586351004  0.44356559614485336  0.08097024692208477  1.0000
  C   C3        1.0  0.5935603349682996  0.8149516194718653  0.43706032665212974  1.0000
  C   C4        1.0  0.9886828023709316  0.4737083847415596  0.9265064231789173  1.0000
  C   C5        1.0  0.7398947022524417  0.05889653806501016  0.7956011038216396  1.0000
  C   C6        1.0  0.25529187637780004  0.6416506798455163  0.6821218516637991  1.0000
  C   C7        1.0  0.5600605266731661  0.3183739016358844  0.2976017367007793  1.0000
  C   C8        1.0  0.7474469957402862  0.6888950915052114  0.18203326891719296  1.0000
  N   N1        1.0  0.6286882258323696  0.2217376682600165  0.586198501890106  1.0000
  N   N2        1.0  0.8911816285413847  0.5572550928922477  0.12509384470405793  1.0000
  N   N3        1.0  0.4089646506288469  0.8298992776641488  0.41050124438998237  1.0000
  N   N4        1.0  0.8114550548106914  0.2881756509060187  0.9142678630975232  1.0000
  O   O1        1.0  0.2911077471692228  0.785503626565964  0.5711157977259587  1.0000
  O   O2        1.0  0.5786410828044493  0.30661988080325453  0.05686796698919694  1.0000
  O   O3        1.0  0.7832553664200297  0.823627447302454  0.4677865580496733  1.0000
  O   O4        1.0  0.20715283442023474  0.5106785628557177  0.9476232801499003  1.0000
  O   O5        1.0  0.6114085180698317  0.8655393490785817  0.8310996006831267  1.0000
  O   O6        1.0  0.10179494691518975  0.837934254676584  0.6973765260581029  1.0000
  O   O7        1.0  0.3372732326928562  0.3962292982729805  0.2831408589918527  1.0000
  O   O8        1.0  0.5680607384773195  0.8794435486252598  0.18645670516666124  1.0000
  O   O9        1.0  0.8670210433890221  0.27110043840542075  0.7678395126431984  1.0000
  O   O10       1.0  0.4106285110932424  0.42417142627331883  0.6793272386466997  1.0000
  O   O11       1.0  0.7581567894241393  0.33039549246961886  0.30700984851397795  1.0000
  O   O12       1.0  0.9192850145722802  0.6977057437705003  0.22411759895199124  1.0000
data_image100
_chemical_formula_structural       Na4C8N4O12
_chemical_formula_sum              "Na4 C8 N4 O12"
_cell_length_a       5.423166
_cell_length_b       3.6248270000000002
_cell_length_c       20.275782753631116
_cell_angle_alpha    88.79220736031418
_cell_angle_beta     90.0
_cell_angle_gamma    90.0

_space_group_name_H-M_alt    "P 1"
_space_group_IT_number       1

loop_
  _space_group_symop_operation_xyz
  'x, y, z'

loop_
  _atom_site_type_symbol
  _atom_site_label
  _atom_site_symmetry_multiplicity
  _atom_site_fract_x
  _atom_site_fract_y
  _atom_site_fract_z
  _atom_site_occupancy
  Na  Na1       1.0  0.4925750243192648  0.044669413875680686  0.955793308076995  1.0000
  Na  Na2       1.0  0.06396365723439158  0.41975473804035524  0.5429678595575075  1.0000
  Na  Na3       1.0  0.17918950112522294  0.13252713640517566  0.1882113514937591  1.0000
  Na  Na4       1.0  0.0078062198927018045  0.6115531173622177  0.3620778430425476  1.0000
  C   C1        1.0  0.6318918040587593  0.8372977451821858  0.5677622342113686  1.0000
  C   C2        1.0  0.6161825317171608  0.36276038528838084  0.07099232290019852  1.0000
  C   C3        1.0  0.5041167991415489  0.6923628204616955  0.4423508232066751  1.0000
  C   C4        1.0  0.04027610185605113  0.5241223919877228  0.9271952166854941  1.0000
  C   C5        1.0  0.7222669195344961  0.1898072613102999  0.786317326391059  1.0000
  C   C6        1.0  0.419996632063661  0.6682416034322921  0.6844003896402134  1.0000
  C   C7        1.0  0.5782273970150734  0.3732637705646551  0.3238821222397028  1.0000
  C   C8        1.0  0.7236875837180661  0.6812121020794744  0.16536501772026707  1.0000
  N   N1        1.0  0.8499604749744365  0.8868168607518847  0.5748548605123791  1.0000
  N   N2        1.0  0.7825501781631632  0.5337593549056566  0.09492672211571396  1.0000
  N   N3        1.0  0.28517742586641814  0.7414819708343778  0.4255830597245954  1.0000
  N   N4        1.0  0.8632360643661627  0.6143818369031181  0.9556760635145015  1.0000
  O   O1        1.0  0.4178075997811312  0.9410034641420548  0.5585158384187846  1.0000
  O   O2        1.0  0.43743573364245203  0.27888437872924976  0.039956431664671443  1.0000
  O   O3        1.0  0.6990943960330291  0.5994166482041229  0.46580308645483876  1.0000
  O   O4        1.0  0.169301788905942  0.43934650417679894  0.879179640435156  1.0000
  O   O5        1.0  0.5017690122399611  0.13028624971898028  0.7900464965800754  1.0000
  O   O6        1.0  0.22636669633416973  0.8224103032092236  0.6943158226240171  1.0000
  O   O7        1.0  0.4086298551309463  0.42683743517153094  0.28498275917377625  1.0000
  O   O8        1.0  0.5439567385219551  0.922548751436598  0.161309510470165  1.0000
  O   O9        1.0  0.9360095510921391  0.16915799345477622  0.7869831539868676  1.0000
  O   O10       1.0  0.612319996949326  0.6114242227502369  0.6844987652697557  1.0000
  O   O11       1.0  0.7007143518998576  0.10288278351364322  0.3559472191637072  1.0000
  O   O12       1.0  0.8774372284440374  0.6499706086825057  0.207284397666501  1.0000
data_image101
_chemical_formula_structural       Na4C8N4O12
_chemical_formula_sum              "Na4 C8 N4 O12"
_cell_length_a       5.423166
_cell_length_b       3.6248270000000002
_cell_length_c       20.275782753631116
_cell_angle_alpha    88.79220736031418
_cell_angle_beta     90.0
_cell_angle_gamma    90.0

_space_group_name_H-M_alt    "P 1"
_space_group_IT_number       1

loop_
  _space_group_symop_operation_xyz
  'x, y, z'

loop_
  _atom_site_type_symbol
  _atom_site_label
  _atom_site_symmetry_multiplicity
  _atom_site_fract_x
  _atom_site_fract_y
  _atom_site_fract_z
  _atom_site_occupancy
  Na  Na1       1.0  0.41942145969987954  0.13375166661697402  0.9068415781790814  1.0000
  Na  Na2       1.0  0.14716368419154235  0.6659747886081289  0.5035582396654245  1.0000
  Na  Na3       1.0  0.2243115727041581  0.2829741917087719  0.1860119885425337  1.0000
  Na  Na4       1.0  0.12845324248839884  0.4876759671103127  0.34841675634157354  1.0000
  C   C1        1.0  0.6156880967337959  0.9810674351601658  0.5784229155092175  1.0000
  C   C2        1.0  0.46204252128341206  0.4006849481837962  0.0602276585623811  1.0000
  C   C3        1.0  0.5742908789903081  0.4482991303773194  0.4561853684832479  1.0000
  C   C4        1.0  0.9902401229427977  0.7651774526624419  0.9234063677375212  1.0000
  C   C5        1.0  0.7392356893437113  0.15239613848424427  0.8016989532695806  1.0000
  C   C6        1.0  0.46392124193401507  0.6948245928706472  0.7046327693758212  1.0000
  C   C7        1.0  0.6032839887102253  0.8766889863865279  0.3467664928059224  1.0000
  C   C8        1.0  0.612774273247935  0.6492344511795942  0.1644089431205438  1.0000
  N   N1        1.0  0.8437683202079309  0.0413790148578177  0.56667214966414  1.0000
  N   N2        1.0  0.6159645413125396  0.45266006264707215  0.10202546282512892  1.0000
  N   N3        1.0  0.41242542186415587  0.707688939972213  0.4375122326955291  1.0000
  N   N4        1.0  0.7858828534792238  0.9290927561025303  0.9266083837118644  1.0000
  O   O1        1.0  0.38428894572021616  0.9932726007703502  0.583133276217523  1.0000
  O   O2        1.0  0.26327398924407186  0.27875328517289344  0.04440039832641318  1.0000
  O   O3        1.0  0.7825489012111941  0.4129455275965893  0.45735420848902053  1.0000
  O   O4        1.0  0.20408603734050135  0.6165644531497564  0.9150116427378484  1.0000
  O   O5        1.0  0.5226986311199249  0.2740579838187083  0.8037778184403717  1.0000
  O   O6        1.0  0.2630919569379151  0.7770269758005068  0.7142687019899714  1.0000
  O   O7        1.0  0.42391313630694394  0.022270986265730874  0.3193617221524785  1.0000
  O   O8        1.0  0.4178730202566425  0.7973925887122688  0.1779515029046296  1.0000
  O   O9        1.0  0.9417391964392439  0.06055970688116563  0.7868118741835984  1.0000
  O   O10       1.0  0.6616519734283846  0.5998036972737194  0.6880001590352296  1.0000
  O   O11       1.0  0.820821663842645  0.9412913416213237  0.3528509940888631  1.0000
  O   O12       1.0  0.8343181783774314  0.7624178743484902  0.17999162376213357  1.0000
data_image102
_chemical_formula_structural       Na4C8N4O12
_chemical_formula_sum              "Na4 C8 N4 O12"
_cell_length_a       5.423166
_cell_length_b       3.6248270000000002
_cell_length_c       20.275782753631116
_cell_angle_alpha    88.79220736031418
_cell_angle_beta     90.0
_cell_angle_gamma    90.0

_space_group_name_H-M_alt    "P 1"
_space_group_IT_number       1

loop_
  _space_group_symop_operation_xyz
  'x, y, z'

loop_
  _atom_site_type_symbol
  _atom_site_label
  _atom_site_symmetry_multiplicity
  _atom_site_fract_x
  _atom_site_fract_y
  _atom_site_fract_z
  _atom_site_occupancy
  Na  Na1       1.0  0.37881578310616426  0.4158510783268001  0.9291454611460119  1.0000
  Na  Na2       1.0  0.05251948241685113  0.8092688298209008  0.5306090703031187  1.0000
  Na  Na3       1.0  0.07291008944514966  0.22873464947285047  0.13345713207867346  1.0000
  Na  Na4       1.0  0.11426173207330148  0.3313458525453824  0.3466688866133576  1.0000
  C   C1        1.0  0.5791783569304781  0.04396519775120633  0.592163790081753  1.0000
  C   C2        1.0  0.5148913612812389  0.44031151889378406  0.052923955600938655  1.0000
  C   C3        1.0  0.8141255869093671  0.47191136373683706  0.44625860885857466  1.0000
  C   C4        1.0  0.8072966710409114  0.8096430119486925  0.9523325130872331  1.0000
  C   C5        1.0  0.826593410787408  0.20625659464383705  0.8171564540505664  1.0000
  C   C6        1.0  0.45202869133980816  0.6318250019513737  0.7056456188659611  1.0000
  C   C7        1.0  0.5501265559239065  0.9294201119743043  0.31121332949477076  1.0000
  C   C8        1.0  0.7072968209364446  0.5910235675725766  0.1525293311054212  1.0000
  N   N1        1.0  0.7968422971378827  0.9375053179134306  0.5884694660416029  1.0000
  N   N2        1.0  0.6977351378686221  0.39931624206952987  0.09153655265014193  1.0000
  N   N3        1.0  0.6500498373091257  0.6166821388188295  0.40803718962228164  1.0000
  N   N4        1.0  0.6010390111750115  0.8478640032433706  0.9637952035016806  1.0000
  O   O1        1.0  0.35764556993807567  0.1586436983167907  0.5896532547607332  1.0000
  O   O2        1.0  0.3048631424336087  0.4004107970793013  0.037977734509138106  1.0000
  O   O3        1.0  0.0028971161016912994  0.33245066031333603  0.46005106646998895  1.0000
  O   O4        1.0  0.03339859238918622  0.7556692314081794  0.948993022954499  1.0000
  O   O5        1.0  0.6541540518076142  0.4099838481967881  0.8192398854583371  1.0000
  O   O6        1.0  0.26529579156464234  0.720173249540605  0.7262014961327719  1.0000
  O   O7        1.0  0.34153728967427593  0.910131365761195  0.32684255284202185  1.0000
  O   O8        1.0  0.5280911067483306  0.605281117944213  0.18640355734083558  1.0000
  O   O9        1.0  0.9733040663017133  0.9644362521482158  0.8065382526582663  1.0000
  O   O10       1.0  0.5917045483129999  0.4312949934103495  0.6794039340990313  1.0000
  O   O11       1.0  0.7512072508564379  0.9688483438138634  0.2798196814199775  1.0000
  O   O12       1.0  0.927999269898666  0.7375652531470402  0.1570596515404724  1.0000
data_image103
_chemical_formula_structural       Na4C8N4O12
_chemical_formula_sum              "Na4 C8 N4 O12"
_cell_length_a       5.423166
_cell_length_b       3.6248270000000002
_cell_length_c       20.275782753631116
_cell_angle_alpha    88.79220736031418
_cell_angle_beta     90.0
_cell_angle_gamma    90.0

_space_group_name_H-M_alt    "P 1"
_space_group_IT_number       1

loop_
  _space_group_symop_operation_xyz
  'x, y, z'

loop_
  _atom_site_type_symbol
  _atom_site_label
  _atom_site_symmetry_multiplicity
  _atom_site_fract_x
  _atom_site_fract_y
  _atom_site_fract_z
  _atom_site_occupancy
  Na  Na1       1.0  0.25037616468493007  0.5786498550709718  0.917092779739355  1.0000
  Na  Na2       1.0  0.04263453431105884  0.6534457343460784  0.5590619528919097  1.0000
  Na  Na3       1.0  0.21320202874875535  0.07290146705696793  0.15417213061633395  1.0000
  Na  Na4       1.0  0.012316257068764713  0.43735011870624585  0.2798640813668859  1.0000
  C   C1        1.0  0.5337391594279359  0.9592446074884209  0.5619300354488117  1.0000
  C   C2        1.0  0.4920400518366135  0.3671019305677514  0.06573480799311282  1.0000
  C   C3        1.0  0.8864652981594965  0.4589831954145108  0.40432015257793785  1.0000
  C   C4        1.0  0.7698268571490079  0.9367659229789386  0.9436621918256547  1.0000
  C   C5        1.0  0.8323221083134704  0.3303302929767207  0.8160215926558164  1.0000
  C   C6        1.0  0.5284222606770004  0.7030967692421733  0.7032158501907694  1.0000
  C   C7        1.0  0.5993124818053363  0.7213339998948425  0.3517409288328586  1.0000
  C   C8        1.0  0.6850887022148373  0.5420931756635119  0.15934418532112893  1.0000
  N   N1        1.0  0.7110249547058672  0.7809570953094436  0.5813255134574068  1.0000
  N   N2        1.0  0.6978520711516636  0.42045092068491374  0.0901460720268441  1.0000
  N   N3        1.0  0.6597166673788579  0.5264043519888486  0.4071453182488577  1.0000
  N   N4        1.0  0.5607331007570535  0.8931761191515817  0.9364235490014186  1.0000
  O   O1        1.0  0.3556333573885871  0.1878601188513842  0.5689190232300172  1.0000
  O   O2        1.0  0.3021137271047798  0.29791988758956334  0.03654732084905543  1.0000
  O   O3        1.0  0.035171327480590264  0.3747532584670854  0.44799141274833665  1.0000
  O   O4        1.0  0.9888453524928672  0.9154514899346022  0.9520859312944862  1.0000
  O   O5        1.0  0.6501880143409868  0.1977289037828458  0.824234862663352  1.0000
  O   O6        1.0  0.30750846105528273  0.6707277517439589  0.6894424063851063  1.0000
  O   O7        1.0  0.3584952594648159  0.7332395832578152  0.34536956295024474  1.0000
  O   O8        1.0  0.4974566888701841  0.6296293886365208  0.19205516642577675  1.0000
  O   O9        1.0  0.9964935286507711  0.535770197739267  0.8219357213469184  1.0000
  O   O10       1.0  0.7178748068179877  0.7290348445884604  0.7294418218450879  1.0000
  O   O11       1.0  0.8085135873778583  0.8837285442471845  0.3223497349449651  1.0000
  O   O12       1.0  0.9012440991773469  0.5398954134578229  0.1804985718354721  1.0000
data_image104
_chemical_formula_structural       Na4C8N4O12
_chemical_formula_sum              "Na4 C8 N4 O12"
_cell_length_a       5.423166
_cell_length_b       3.6248270000000002
_cell_length_c       20.275782753631116
_cell_angle_alpha    88.79220736031418
_cell_angle_beta     90.0
_cell_angle_gamma    90.0

_space_group_name_H-M_alt    "P 1"
_space_group_IT_number       1

loop_
  _space_group_symop_operation_xyz
  'x, y, z'

loop_
  _atom_site_type_symbol
  _atom_site_label
  _atom_site_symmetry_multiplicity
  _atom_site_fract_x
  _atom_site_fract_y
  _atom_site_fract_z
  _atom_site_occupancy
  Na  Na1       1.0  0.4056871922728986  0.49466920235559875  0.9077893838975136  1.0000
  Na  Na2       1.0  0.11474236179094258  0.4051443004572113  0.5483851539598154  1.0000
  Na  Na3       1.0  0.26609489483288734  0.962020827227098  0.17852607428015987  1.0000
  Na  Na4       1.0  0.04978694207567358  0.40316587304846907  0.3269702071682243  1.0000
  C   C1        1.0  0.5526904978678625  0.7226567808538621  0.546865483472816  1.0000
  C   C2        1.0  0.42414337022334525  0.3674117885274958  0.07737984153291544  1.0000
  C   C3        1.0  0.7706094587286589  0.5031549729344742  0.4347895239723781  1.0000
  C   C4        1.0  0.8461684999191245  0.996402240686743  0.9468272582351277  1.0000
  C   C5        1.0  0.8390436518878096  0.4520132693811365  0.8091443198877202  1.0000
  C   C6        1.0  0.36525105903089106  0.7711082700348149  0.7028145240360293  1.0000
  C   C7        1.0  0.5764669993332124  0.8311729297378497  0.3410830458622001  1.0000
  C   C8        1.0  0.7268594605403585  0.5680644870238702  0.1595587208870963  1.0000
  N   N1        1.0  0.7476370550749958  0.6341854182085966  0.5714522676489306  1.0000
  N   N2        1.0  0.5961903173237053  0.421690446078828  0.11413854063722595  1.0000
  N   N3        1.0  0.5728815775070812  0.5850631385059148  0.41208807293187505  1.0000
  N   N4        1.0  0.6535625780381326  0.8360927033599038  0.9426198437242181  1.0000
  O   O1        1.0  0.35438006886814755  0.8719336673391708  0.5331222381566217  1.0000
  O   O2        1.0  0.19868461949724092  0.4054810903321886  0.06394464004888278  1.0000
  O   O3        1.0  0.982943426013428  0.407279771240349  0.43752440614203447  1.0000
  O   O4        1.0  0.030327189769086542  0.18546585589745157  0.9492133089191239  1.0000
  O   O5        1.0  0.6197474226467342  0.39031440746686474  0.8062231648312332  1.0000
  O   O6        1.0  0.16866177954298922  0.5732278347136843  0.6947150695163086  1.0000
  O   O7        1.0  0.36966171465274045  0.8269512783268363  0.3073848916837892  1.0000
  O   O8        1.0  0.6608459405114798  0.8441223901104781  0.19129202891801458  1.0000
  O   O9        1.0  0.023143117093560317  0.6373538098111107  0.8133432988409254  1.0000
  O   O10       1.0  0.5644560242030368  0.9087643122001543  0.699415159076552  1.0000
  O   O11       1.0  0.7814414791175941  0.9007636895209231  0.3251999792401936  1.0000
  O   O12       1.0  0.9312203296632147  0.4068520852773101  0.18330852114685423  1.0000
data_image105
_chemical_formula_structural       Na4C8N4O12
_chemical_formula_sum              "Na4 C8 N4 O12"
_cell_length_a       5.423166
_cell_length_b       3.6248270000000002
_cell_length_c       20.275782753631116
_cell_angle_alpha    88.79220736031418
_cell_angle_beta     90.0
_cell_angle_gamma    90.0

_space_group_name_H-M_alt    "P 1"
_space_group_IT_number       1

loop_
  _space_group_symop_operation_xyz
  'x, y, z'

loop_
  _atom_site_type_symbol
  _atom_site_label
  _atom_site_symmetry_multiplicity
  _atom_site_fract_x
  _atom_site_fract_y
  _atom_site_fract_z
  _atom_site_occupancy
  Na  Na1       1.0  0.3563142676909705  0.4477126434341403  0.9294211203933911  1.0000
  Na  Na2       1.0  0.04141197368341442  0.34464251997689344  0.583174897719132  1.0000
  Na  Na3       1.0  0.20945631308076057  0.9032555093303953  0.1770586366428504  1.0000
  Na  Na4       1.0  0.14431832925521548  0.5122061593687699  0.33258346346658735  1.0000
  C   C1        1.0  0.4967489804259535  0.6460189407285796  0.5412396350926216  1.0000
  C   C2        1.0  0.5305094386850593  0.3961627696550011  0.08344060135523779  1.0000
  C   C3        1.0  0.7223729185833767  0.48461153293825776  0.4080636150903151  1.0000
  C   C4        1.0  0.8894612199440303  0.013128459237392365  0.9595866100224073  1.0000
  C   C5        1.0  0.8187141322333502  0.46602905934941985  0.8122646681769601  1.0000
  C   C6        1.0  0.3433937632643884  0.8484427219560801  0.6880748588356848  1.0000
  C   C7        1.0  0.5995105656183848  0.9867870385682899  0.3282284970526978  1.0000
  C   C8        1.0  0.7825827633505038  0.5139831949260012  0.1720483001001014  1.0000
  N   N1        1.0  0.6450534570330071  0.40003545971252735  0.55710057862919  1.0000
  N   N2        1.0  0.717660141758161  0.23263652754279618  0.1114622963909433  1.0000
  N   N3        1.0  0.5376999829743248  0.6338602873848038  0.39192796284960385  1.0000
  N   N4        1.0  0.6706450052196505  0.04816590603309323  0.9565922770920223  1.0000
  O   O1        1.0  0.2812995961383638  0.7652779785385442  0.5361666947202633  1.0000
  O   O2        1.0  0.35779059970383464  0.5528628751005951  0.0572658935445054  1.0000
  O   O3        1.0  0.9071149889997192  0.3354392754141231  0.423362410936951  1.0000
  O   O4        1.0  0.08573618347525928  0.9338244026227629  0.9403255561994757  1.0000
  O   O5        1.0  0.6291746795242023  0.30303329299668436  0.8144070795448276  1.0000
  O   O6        1.0  0.1519668555224809  0.7233913770362324  0.7098280892449482  1.0000
  O   O7        1.0  0.3909844544272209  0.9611133443385055  0.2941546589684831  1.0000
  O   O8        1.0  0.6512748718569686  0.7714995107134839  0.20179702386028195  1.0000
  O   O9        1.0  0.006452507753269554  0.608312505169671  0.8201654324554172  1.0000
  O   O10       1.0  0.49154933243778043  0.0002496663058801918  0.6589087963373297  1.0000
  O   O11       1.0  0.7985128779369932  0.10341276067783634  0.318547818092405  1.0000
  O   O12       1.0  0.9927138944703909  0.41530374155435723  0.18244048973481578  1.0000
data_image106
_chemical_formula_structural       Na4C8N4O12
_chemical_formula_sum              "Na4 C8 N4 O12"
_cell_length_a       5.423166
_cell_length_b       3.6248270000000002
_cell_length_c       20.275782753631116
_cell_angle_alpha    88.79220736031418
_cell_angle_beta     90.0
_cell_angle_gamma    90.0

_space_group_name_H-M_alt    "P 1"
_space_group_IT_number       1

loop_
  _space_group_symop_operation_xyz
  'x, y, z'

loop_
  _atom_site_type_symbol
  _atom_site_label
  _atom_site_symmetry_multiplicity
  _atom_site_fract_x
  _atom_site_fract_y
  _atom_site_fract_z
  _atom_site_occupancy
  Na  Na1       1.0  0.3394372249664297  0.4415820457352373  0.9728164482742072  1.0000
  Na  Na2       1.0  0.9739742819800553  0.1492751650585058  0.5899610627593428  1.0000
  Na  Na3       1.0  0.35542674877378555  0.06521555108469551  0.19081385763967865  1.0000
  Na  Na4       1.0  0.05426700621692726  0.5410230824186227  0.3396454953946066  1.0000
  C   C1        1.0  0.405071275097277  0.5761081719390325  0.5431168626852163  1.0000
  C   C2        1.0  0.5488215689002098  0.6731398655461232  0.07792594230885652  1.0000
  C   C3        1.0  0.758149738910689  0.48914779336337677  0.4254683352941345  1.0000
  C   C4        1.0  0.8684898192547243  0.045622289574499986  0.9499261204607667  1.0000
  C   C5        1.0  0.8959795242358364  0.48061689059273593  0.8058313124427282  1.0000
  C   C6        1.0  0.2944384348296478  0.8090367063258269  0.6759491401724055  1.0000
  C   C7        1.0  0.5898740246028538  0.9405127250223345  0.33528585467525557  1.0000
  C   C8        1.0  0.816268546416832  0.36808470254148173  0.15098591979657497  1.0000
  N   N1        1.0  0.5776917945342509  0.37446309257303445  0.5261955482351229  1.0000
  N   N2        1.0  0.7763012269551048  0.5892846618364839  0.08206104663829206  1.0000
  N   N3        1.0  0.5807444079645137  0.6460744656284758  0.3938626394407567  1.0000
  N   N4        1.0  0.665019743004806  0.07167918944308704  0.9297017408565652  1.0000
  O   O1        1.0  0.22693246071669643  0.7859077139070264  0.5407879874825041  1.0000
  O   O2        1.0  0.36041874896434056  0.8235924016742369  0.05493994616035702  1.0000
  O   O3        1.0  0.9575811809572332  0.3727271923048633  0.4406506900570063  1.0000
  O   O4        1.0  0.08277526331087184  0.9288198872898735  0.9527272589410035  1.0000
  O   O5        1.0  0.7526062478546783  0.31309017546208917  0.7746650672675854  1.0000
  O   O6        1.0  0.11703173314857063  0.6583677963459322  0.6606101851544612  1.0000
  O   O7        1.0  0.3682099286521299  0.07085828692060891  0.3222486610455402  1.0000
  O   O8        1.0  0.6652773479929053  0.5417835118965192  0.18713436250687154  1.0000
  O   O9        1.0  0.015054279907976698  0.6819718018597629  0.8355520761697179  1.0000
  O   O10       1.0  0.4942431297609171  0.9042725383288567  0.7008030520604812  1.0000
  O   O11       1.0  0.791350777426913  0.9546899269561764  0.31441024909750376  1.0000
  O   O12       1.0  0.9338683149793621  0.10593320935779427  0.16626478338358655  1.0000
data_image107
_chemical_formula_structural       Na4C8N4O12
_chemical_formula_sum              "Na4 C8 N4 O12"
_cell_length_a       5.423166
_cell_length_b       3.6248270000000002
_cell_length_c       20.275782753631116
_cell_angle_alpha    88.79220736031418
_cell_angle_beta     90.0
_cell_angle_gamma    90.0

_space_group_name_H-M_alt    "P 1"
_space_group_IT_number       1

loop_
  _space_group_symop_operation_xyz
  'x, y, z'

loop_
  _atom_site_type_symbol
  _atom_site_label
  _atom_site_symmetry_multiplicity
  _atom_site_fract_x
  _atom_site_fract_y
  _atom_site_fract_z
  _atom_site_occupancy
  Na  Na1       1.0  0.2657340224799285  0.631651488848135  0.9584309435276765  1.0000
  Na  Na2       1.0  0.9093095637433487  0.6833836520682999  0.5388174564945641  1.0000
  Na  Na3       1.0  0.41837061768790135  0.08439055649668006  0.20729056588380312  1.0000
  Na  Na4       1.0  0.024687092069759053  0.42558437784870495  0.358447476644028  1.0000
  C   C1        1.0  0.4573510569554135  0.505763333128881  0.5696705029122352  1.0000
  C   C2        1.0  0.7443868589045102  0.7811284817282466  0.056252157844871364  1.0000
  C   C3        1.0  0.7133205581544966  0.4641859972844159  0.42524261167635663  1.0000
  C   C4        1.0  0.7652839663027865  0.18926505348587153  0.931672613998931  1.0000
  C   C5        1.0  0.8303194533648254  0.47382136087366566  0.7878306566565002  1.0000
  C   C6        1.0  0.22781393478623557  0.7700126806740273  0.6971303198065925  1.0000
  C   C7        1.0  0.5322389580889324  0.0021662190520996827  0.3468524422027563  1.0000
  C   C8        1.0  0.9570000711573228  0.42173096255923403  0.13329493971725487  1.0000
  N   N1        1.0  0.5787331728486752  0.447515796550746  0.6211527121851124  1.0000
  N   N2        1.0  0.9286774896783212  0.5831208683584728  0.06823696475449426  1.0000
  N   N3        1.0  0.578388364979882  0.7465446328962008  0.41880648039682916  1.0000
  N   N4        1.0  0.5722526843397363  0.9884653072549922  0.9280505875050491  1.0000
  O   O1        1.0  0.33412777377686126  0.722467022671967  0.5329345447329294  1.0000
  O   O2        1.0  0.5497744976936567  0.8740342948356942  0.049327696394265486  1.0000
  O   O3        1.0  0.9065501469079691  0.2833620281898084  0.4497280980394575  1.0000
  O   O4        1.0  0.9997531905763117  0.21428882656489967  0.9366195654149936  1.0000
  O   O5        1.0  0.6915448418732358  0.3393767069378737  0.7499767051145866  1.0000
  O   O6        1.0  0.06519705534270948  0.7229664730624608  0.6624582412079325  1.0000
  O   O7        1.0  0.30911406914501915  0.9293492303246113  0.3363590491707006  1.0000
  O   O8        1.0  0.8075173418906464  0.49829173784032715  0.17665364662343697  1.0000
  O   O9        1.0  0.9377931245955509  0.6395733480859391  0.8274606466247417  1.0000
  O   O10       1.0  0.38420683356597785  0.7756947878215823  0.7414966253615428  1.0000
  O   O11       1.0  0.6979190375061246  0.22038280434945823  0.32287924322600625  1.0000
  O   O12       1.0  0.14229419339666055  0.21762649480830554  0.12858510036779125  1.0000
data_image108
_chemical_formula_structural       Na4C8N4O12
_chemical_formula_sum              "Na4 C8 N4 O12"
_cell_length_a       5.423166
_cell_length_b       3.6248270000000002
_cell_length_c       20.275782753631116
_cell_angle_alpha    88.79220736031418
_cell_angle_beta     90.0
_cell_angle_gamma    90.0

_space_group_name_H-M_alt    "P 1"
_space_group_IT_number       1

loop_
  _space_group_symop_operation_xyz
  'x, y, z'

loop_
  _atom_site_type_symbol
  _atom_site_label
  _atom_site_symmetry_multiplicity
  _atom_site_fract_x
  _atom_site_fract_y
  _atom_site_fract_z
  _atom_site_occupancy
  Na  Na1       1.0  0.2310403797287106  0.9216761854748963  0.9623967557829352  1.0000
  Na  Na2       1.0  0.01810038054332654  0.5740254192800059  0.5622259415695341  1.0000
  Na  Na3       1.0  0.5920429216939057  0.1266829348559544  0.19930316338371537  1.0000
  Na  Na4       1.0  0.8964782912759732  0.3592506932415316  0.30773284484513735  1.0000
  C   C1        1.0  0.4987679693982547  0.6767102490129691  0.563988439715352  1.0000
  C   C2        1.0  0.7358361608065898  0.667380198746041  0.061352069762036  1.0000
  C   C3        1.0  0.7449368394511047  0.4134057339993078  0.4350337880292497  1.0000
  C   C4        1.0  0.7282679609728494  0.18576133910552906  0.9253426621676671  1.0000
  C   C5        1.0  0.8175377434465887  0.43346765053285097  0.7688282545044343  1.0000
  C   C6        1.0  0.20496042049706298  0.9391755241799973  0.7021187443634975  1.0000
  C   C7        1.0  0.46000812516043327  0.7375808820593114  0.3400642544815338  1.0000
  C   C8        1.0  0.05397100649936126  0.45831482606593243  0.14412559057929203  1.0000
  N   N1        1.0  0.6212809815516688  0.5137938690333417  0.6079618888173279  1.0000
  N   N2        1.0  0.9548174905325515  0.5566826575820578  0.0755145184847763  1.0000
  N   N3        1.0  0.5977224266802017  0.46653069400426095  0.3916746876026114  1.0000
  N   N4        1.0  0.5478698385839157  0.414369838643851  0.9190063130429417  1.0000
  O   O1        1.0  0.3342553103359635  0.8091619175607719  0.5269399027362873  1.0000
  O   O2        1.0  0.5856284831356184  0.871535625279771  0.06801449141416627  1.0000
  O   O3        1.0  0.8466585041543115  0.26597361038544853  0.4813748483639111  1.0000
  O   O4        1.0  0.8401830451414356  0.9364798994290637  0.9497328431999071  1.0000
  O   O5        1.0  0.8249077672566762  0.16674932967846434  0.7367406097789505  1.0000
  O   O6        1.0  0.08010966899760108  0.9094814809189247  0.6538320068165061  1.0000
  O   O7        1.0  0.2626402650506686  0.8361730010068391  0.3621175870891417  1.0000
  O   O8        1.0  0.8893134329089835  0.49214519580866295  0.19386264181422602  1.0000
  O   O9        1.0  0.7616867548837335  0.6364773985720436  0.8156036464182097  1.0000
  O   O10       1.0  0.2629585454231873  0.9685810367133355  0.7599291265293446  1.0000
  O   O11       1.0  0.6161226702792157  0.8342671761178063  0.3014104371834247  1.0000
  O   O12       1.0  0.28062469051299577  0.39073108585062566  0.15172472594114908  1.0000
data_image109
_chemical_formula_structural       Na4C8N4O12
_chemical_formula_sum              "Na4 C8 N4 O12"
_cell_length_a       5.423166
_cell_length_b       3.6248270000000002
_cell_length_c       20.275782753631116
_cell_angle_alpha    88.79220736031418
_cell_angle_beta     90.0
_cell_angle_gamma    90.0

_space_group_name_H-M_alt    "P 1"
_space_group_IT_number       1

loop_
  _space_group_symop_operation_xyz
  'x, y, z'

loop_
  _atom_site_type_symbol
  _atom_site_label
  _atom_site_symmetry_multiplicity
  _atom_site_fract_x
  _atom_site_fract_y
  _atom_site_fract_z
  _atom_site_occupancy
  Na  Na1       1.0  0.19965688732977016  0.9023980929477966  0.9603921915876296  1.0000
  Na  Na2       1.0  0.9640832330098625  0.4001636079435866  0.577048566546586  1.0000
  Na  Na3       1.0  0.5673077500614573  0.9285312173279561  0.18751738195101053  1.0000
  Na  Na4       1.0  0.9731259671186151  0.18080566904432183  0.325876728961721  1.0000
  C   C1        1.0  0.4955636430040094  0.7647875254372228  0.5428198351509308  1.0000
  C   C2        1.0  0.8718258825105745  0.6418655962175539  0.07702975602112683  1.0000
  C   C3        1.0  0.6895695073513131  0.3784975987314909  0.43876348628886414  1.0000
  C   C4        1.0  0.6314810285187741  0.38395478950055617  0.9313296129165657  1.0000
  C   C5        1.0  0.7800735519040318  0.4149687657734962  0.7677319006802945  1.0000
  C   C6        1.0  0.23419580805407159  0.9647663264277949  0.695440048326734  1.0000
  C   C7        1.0  0.4078612617184654  0.6380823094092567  0.34509187688940884  1.0000
  C   C8        1.0  0.13374532420166685  0.5586919915819188  0.1743125902145068  1.0000
  N   N1        1.0  0.6023736973829794  0.7385166660914826  0.5995412974060317  1.0000
  N   N2        1.0  0.0767923425771303  0.5777774577259502  0.09676258050541042  1.0000
  N   N3        1.0  0.5547156500071686  0.4855026913481475  0.39032851119421846  1.0000
  N   N4        1.0  0.4291774220652948  0.562145190691119  0.9252941994565103  1.0000
  O   O1        1.0  0.3615013422155362  0.7519364392160163  0.4924529851755267  1.0000
  O   O2        1.0  0.67464424674029  0.724106639957298  0.06907675166431493  1.0000
  O   O3        1.0  0.8722947058635167  0.24825206189540816  0.4625674885248366  1.0000
  O   O4        1.0  0.7773543948466962  0.1510836599329186  0.950976953200811  1.0000
  O   O5        1.0  0.7685794398588998  0.2620093352990953  0.7156741520876901  1.0000
  O   O6        1.0  0.12397463547701304  0.053627666477003455  0.6473356409100788  1.0000
  O   O7        1.0  0.19421261908766546  0.7310421102379927  0.36729419314986217  1.0000
  O   O8        1.0  0.9802828582937795  0.7302857247586816  0.20803507780236857  1.0000
  O   O9        1.0  0.797642628156416  0.6507878829584366  0.8068263815399849  1.0000
  O   O10       1.0  0.3378334033510626  0.9855967741837008  0.7506968083292207  1.0000
  O   O11       1.0  0.4824465055583779  0.7385437175359663  0.2800348788202068  1.0000
  O   O12       1.0  0.3139762144062639  0.37183406736302316  0.18358976286637826  1.0000
data_image110
_chemical_formula_structural       Na4C8N4O12
_chemical_formula_sum              "Na4 C8 N4 O12"
_cell_length_a       5.423166
_cell_length_b       3.6248270000000002
_cell_length_c       20.275782753631116
_cell_angle_alpha    88.79220736031418
_cell_angle_beta     90.0
_cell_angle_gamma    90.0

_space_group_name_H-M_alt    "P 1"
_space_group_IT_number       1

loop_
  _space_group_symop_operation_xyz
  'x, y, z'

loop_
  _atom_site_type_symbol
  _atom_site_label
  _atom_site_symmetry_multiplicity
  _atom_site_fract_x
  _atom_site_fract_y
  _atom_site_fract_z
  _atom_site_occupancy
  Na  Na1       1.0  0.04599869794537592  0.1498846006345913  0.982447616171669  1.0000
  Na  Na2       1.0  0.9101548313584157  0.37421135318448984  0.5904129837565826  1.0000
  Na  Na3       1.0  0.5860682952822196  0.8125671001112831  0.2071143794956008  1.0000
  Na  Na4       1.0  0.956985601351855  0.8250655981253887  0.34518127865170345  1.0000
  C   C1        1.0  0.46894009067343867  0.7566563542930487  0.537317177444487  1.0000
  C   C2        1.0  0.7446168955052208  0.6987352089508363  0.06805358329321898  1.0000
  C   C3        1.0  0.7735486113384202  0.4038123832625031  0.4220978181421631  1.0000
  C   C4        1.0  0.6193478058008657  0.6469477714271936  0.9219846721515839  1.0000
  C   C5        1.0  0.8025270583878465  0.7052741691625  0.7508484800222855  1.0000
  C   C6        1.0  0.34460545374737417  0.834948587584031  0.7065427444801122  1.0000
  C   C7        1.0  0.40513728785156855  0.4709008352755065  0.3444960476168634  1.0000
  C   C8        1.0  0.12134132084382387  0.557495373994042  0.15056344002000102  1.0000
  N   N1        1.0  0.657319291000059  0.8944888973510357  0.5629536990993583  1.0000
  N   N2        1.0  0.9142248194627838  0.5222959470599693  0.09868267633868011  1.0000
  N   N3        1.0  0.5846647685103779  0.33263416287890857  0.39430317777326157  1.0000
  N   N4        1.0  0.39473309624582514  0.6626583125284391  0.9126259778811162  1.0000
  O   O1        1.0  0.2978223911714326  0.5651657085329062  0.5355548847660435  1.0000
  O   O2        1.0  0.5999914997075642  0.8901599717076111  0.03948374003493016  1.0000
  O   O3        1.0  0.9180474350794723  0.4042601095793241  0.47201602862100134  1.0000
  O   O4        1.0  0.8330617119452008  0.6120979048803943  0.9418553492665148  1.0000
  O   O5        1.0  0.7964326139069036  0.5799939076304852  0.6996456628889146  1.0000
  O   O6        1.0  0.287755350772382  0.5964743926403728  0.6744102747163051  1.0000
  O   O7        1.0  0.1902323244506669  0.335515233110857  0.3515042699719447  1.0000
  O   O8        1.0  0.01273558316580492  0.5707592848925506  0.2065045127345085  1.0000
  O   O9        1.0  0.8097956222064708  0.7662315109640472  0.8073069674999678  1.0000
  O   O10       1.0  0.4482158720434981  0.0002220361357263556  0.747593855051065  1.0000
  O   O11       1.0  0.5173828552487613  0.6829896285341156  0.30560872591427424  1.0000
  O   O12       1.0  0.34004929591159716  0.46750898523520124  0.1371572059370294  1.0000
data_image111
_chemical_formula_structural       Na4C8N4O12
_chemical_formula_sum              "Na4 C8 N4 O12"
_cell_length_a       5.423166
_cell_length_b       3.6248270000000002
_cell_length_c       20.275782753631116
_cell_angle_alpha    88.79220736031418
_cell_angle_beta     90.0
_cell_angle_gamma    90.0

_space_group_name_H-M_alt    "P 1"
_space_group_IT_number       1

loop_
  _space_group_symop_operation_xyz
  'x, y, z'

loop_
  _atom_site_type_symbol
  _atom_site_label
  _atom_site_symmetry_multiplicity
  _atom_site_fract_x
  _atom_site_fract_y
  _atom_site_fract_z
  _atom_site_occupancy
  Na  Na1       1.0  0.03511005797007649  0.30244444237875157  0.9471521472730062  1.0000
  Na  Na2       1.0  0.9305632651040585  0.5842360242246565  0.5885275512448686  1.0000
  Na  Na3       1.0  0.4736635084026174  0.7842464450659873  0.1693896996307451  1.0000
  Na  Na4       1.0  0.1128750099213327  0.6442326767797719  0.37597258389171295  1.0000
  C   C1        1.0  0.3983141915954906  0.9591668947401315  0.5452487772727262  1.0000
  C   C2        1.0  0.7204612994389783  0.824318310715145  0.05045710935203185  1.0000
  C   C3        1.0  0.7355909096191926  0.15626738138861562  0.4575088165336214  1.0000
  C   C4        1.0  0.5587836852688953  0.7333815382219429  0.9195810077593007  1.0000
  C   C5        1.0  0.8977013040601125  0.7374437903017519  0.7602637695091492  1.0000
  C   C6        1.0  0.43018418624033217  0.8096233040207919  0.7420130277221655  1.0000
  C   C7        1.0  0.4917790436823656  0.2466509095913936  0.3563693784814328  1.0000
  C   C8        1.0  0.00038254612670529653  0.443757531048274  0.14794732574404648  1.0000
  N   N1        1.0  0.6094820857877785  0.08720937288119068  0.5561322255500248  1.0000
  N   N2        1.0  0.9315840078632032  0.6781626883865121  0.07533548880497909  1.0000
  N   N3        1.0  0.5767322802494372  0.07812973418179836  0.41888423327651114  1.0000
  N   N4        1.0  0.3444131537578593  0.6628065707812612  0.9168913011235165  1.0000
  O   O1        1.0  0.23373034018208239  0.7340450719468041  0.542153549483911  1.0000
  O   O2        1.0  0.5155626311226527  0.9530779889551769  0.045488259130044506  1.0000
  O   O3        1.0  0.9478448383797347  0.2714757962276674  0.4730110977441355  1.0000
  O   O4        1.0  0.7827890841815366  0.8295223284736022  0.9206741461942146  1.0000
  O   O5        1.0  0.9694336581424176  0.5623392359706125  0.7086120824455889  1.0000
  O   O6        1.0  0.5148918372592972  0.7994810271350439  0.6884583484709308  1.0000
  O   O7        1.0  0.2987833341285542  0.14176193208409024  0.3305521866654876  1.0000
  O   O8        1.0  0.7931818157543652  0.23897964329752477  0.1594389159471637  1.0000
  O   O9        1.0  0.8548094608349974  0.9930469609490851  0.7871644122690051  1.0000
  O   O10       1.0  0.31961857839551344  0.9178373847861135  0.7893067693992322  1.0000
  O   O11       1.0  0.6372798241893232  0.46874496365728935  0.3258689964501889  1.0000
  O   O12       1.0  0.21919400828691463  0.38062208083527227  0.15476692388717755  1.0000
data_image112
_chemical_formula_structural       Na4C8N4O12
_chemical_formula_sum              "Na4 C8 N4 O12"
_cell_length_a       5.423166
_cell_length_b       3.6248270000000002
_cell_length_c       20.275782753631116
_cell_angle_alpha    88.79220736031418
_cell_angle_beta     90.0
_cell_angle_gamma    90.0

_space_group_name_H-M_alt    "P 1"
_space_group_IT_number       1

loop_
  _space_group_symop_operation_xyz
  'x, y, z'

loop_
  _atom_site_type_symbol
  _atom_site_label
  _atom_site_symmetry_multiplicity
  _atom_site_fract_x
  _atom_site_fract_y
  _atom_site_fract_z
  _atom_site_occupancy
  Na  Na1       1.0  0.035562815720738605  0.2086946085707868  0.9675275028200245  1.0000
  Na  Na2       1.0  0.6874449689912541  0.605642134467737  0.6148823588560604  1.0000
  Na  Na3       1.0  0.38758717557572964  0.8108221972582146  0.1578709401023645  1.0000
  Na  Na4       1.0  0.1479202150043144  0.5898805429448306  0.3432612575034198  1.0000
  C   C1        1.0  0.36876557705448376  0.9576289503254038  0.5582950977786296  1.0000
  C   C2        1.0  0.7618057996452987  0.8271424791922356  0.051883122805269855  1.0000
  C   C3        1.0  0.7526919321052508  0.26146177167850226  0.45000244329028544  1.0000
  C   C4        1.0  0.46344584619592916  0.6631429636295061  0.9136473311951832  1.0000
  C   C5        1.0  0.03724372149535227  0.9342749135533528  0.7431244564773845  1.0000
  C   C6        1.0  0.4659110325138942  0.8822718653892792  0.7514553712942866  1.0000
  C   C7        1.0  0.6344927270118387  0.038685914960355935  0.35496960553850465  1.0000
  C   C8        1.0  0.9237284718025867  0.4022188111741196  0.1303283527776403  1.0000
  N   N1        1.0  0.5573343275344341  0.09637604499357955  0.5430380837689317  1.0000
  N   N2        1.0  0.8760423981248873  0.5573070330339065  0.05796742589149084  1.0000
  N   N3        1.0  0.590369202359037  0.05259551543610774  0.42644961114095353  1.0000
  N   N4        1.0  0.24193870334476442  0.6951560332617122  0.9170238849928447  1.0000
  O   O1        1.0  0.1854837574365169  0.7680103554658398  0.5781912223490168  1.0000
  O   O2        1.0  0.5792671793655106  0.9917138541188882  0.0694343248414635  1.0000
  O   O3        1.0  0.932730986235712  0.4418223157133183  0.4552564972864009  1.0000
  O   O4        1.0  0.6888527278019363  0.7501648374793852  0.9045745305643442  1.0000
  O   O5        1.0  0.032053554447828425  0.825005711071573  0.6917730005705017  1.0000
  O   O6        1.0  0.5171993233470968  0.9927232344492407  0.6927657436976727  1.0000
  O   O7        1.0  0.4615686486977375  0.07158740389860832  0.3171504057446236  1.0000
  O   O8        1.0  0.7353641405762861  0.48136449465954545  0.1678834103890511  1.0000
  O   O9        1.0  0.0072593040380370955  0.038468316488104115  0.7973320841088856  1.0000
  O   O10       1.0  0.4540009264145386  0.9287418153180755  0.8079624145185449  1.0000
  O   O11       1.0  0.8528804155154259  0.9727890384078205  0.33304970049488347  1.0000
  O   O12       1.0  0.09976481387498302  0.2214794565590794  0.1454200347783338  1.0000
data_image113
_chemical_formula_structural       Na4C8N4O12
_chemical_formula_sum              "Na4 C8 N4 O12"
_cell_length_a       5.423166
_cell_length_b       3.6248270000000002
_cell_length_c       20.275782753631116
_cell_angle_alpha    88.79220736031418
_cell_angle_beta     90.0
_cell_angle_gamma    90.0

_space_group_name_H-M_alt    "P 1"
_space_group_IT_number       1

loop_
  _space_group_symop_operation_xyz
  'x, y, z'

loop_
  _atom_site_type_symbol
  _atom_site_label
  _atom_site_symmetry_multiplicity
  _atom_site_fract_x
  _atom_site_fract_y
  _atom_site_fract_z
  _atom_site_occupancy
  Na  Na1       1.0  0.015214194634346923  0.0027560640800254887  0.9524287796875008  1.0000
  Na  Na2       1.0  0.6487944628936035  0.6246859850998829  0.6122485402603022  1.0000
  Na  Na3       1.0  0.3712083581714546  0.03855108982929737  0.20368214396363554  1.0000
  Na  Na4       1.0  0.2510645739789248  0.2520013914629031  0.33169430187255144  1.0000
  C   C1        1.0  0.31882887901127316  0.944491018470158  0.5499569707354356  1.0000
  C   C2        1.0  0.6810071537053484  0.7813287144590638  0.05090051351626945  1.0000
  C   C3        1.0  0.7506142492212431  0.17149297437039124  0.43557264559376513  1.0000
  C   C4        1.0  0.5977249284862044  0.4670847275118686  0.9235404899969611  1.0000
  C   C5        1.0  0.027067228634736207  0.16368707363255552  0.7513326049100862  1.0000
  C   C6        1.0  0.5109358518806042  0.16380924992788137  0.7610443676913939  1.0000
  C   C7        1.0  0.7136879295713855  0.888495504998745  0.3369718774214204  1.0000
  C   C8        1.0  0.8369948989047604  0.537921026307224  0.15004985301332685  1.0000
  N   N1        1.0  0.5234999913061155  0.06080978163459494  0.5360292488244964  1.0000
  N   N2        1.0  0.8300390944907341  0.5424949142382269  0.07616008218694703  1.0000
  N   N3        1.0  0.6239947111006587  0.14988115354998321  0.38733868065268917  1.0000
  N   N4        1.0  0.37901843672877195  0.5010342187228856  0.9158228670134926  1.0000
  O   O1        1.0  0.12675585777151507  0.805618330716126  0.5494864893782225  1.0000
  O   O2        1.0  0.5565252110197406  0.98846247812388  0.03150338565795452  1.0000
  O   O3        1.0  0.8910537760341188  0.3156448491270545  0.4763631663269895  1.0000
  O   O4        1.0  0.8405165248786999  0.5322740431184609  0.9246166413283669  1.0000
  O   O5        1.0  0.9753051303911474  0.9841689651371783  0.7039443826551296  1.0000
  O   O6        1.0  0.42621854436089146  0.3950986583155083  0.7183319144051658  1.0000
  O   O7        1.0  0.5119150099084664  0.8349842503353255  0.3040649564375565  1.0000
  O   O8        1.0  0.6299067203286477  0.5412078660807587  0.17999964432573076  1.0000
  O   O9        1.0  0.030442478902411363  0.4064924120333693  0.7931851454243182  1.0000
  O   O10       1.0  0.4622244805937523  0.9286015833809251  0.8022045002396979  1.0000
  O   O11       1.0  0.9033644597399845  0.7285967310761263  0.3127515376590984  1.0000
  O   O12       1.0  0.047399718518509965  0.46412084412415955  0.16211375481555798  1.0000
data_image114
_chemical_formula_structural       Na4C8N4O12
_chemical_formula_sum              "Na4 C8 N4 O12"
_cell_length_a       5.423166
_cell_length_b       3.6248270000000002
_cell_length_c       20.275782753631116
_cell_angle_alpha    88.79220736031418
_cell_angle_beta     90.0
_cell_angle_gamma    90.0

_space_group_name_H-M_alt    "P 1"
_space_group_IT_number       1

loop_
  _space_group_symop_operation_xyz
  'x, y, z'

loop_
  _atom_site_type_symbol
  _atom_site_label
  _atom_site_symmetry_multiplicity
  _atom_site_fract_x
  _atom_site_fract_y
  _atom_site_fract_z
  _atom_site_occupancy
  Na  Na1       1.0  0.08634285875218928  0.09330016910866534  0.9557826620447164  1.0000
  Na  Na2       1.0  0.6573956887026398  0.3719382616286246  0.5873230252514963  1.0000
  Na  Na3       1.0  0.3662138221078812  0.869459511862244  0.16034347742341623  1.0000
  Na  Na4       1.0  0.18873810392363044  0.18451958599323626  0.35755775414093033  1.0000
  C   C1        1.0  0.13479312324964207  0.7771361922104286  0.5806663880796452  1.0000
  C   C2        1.0  0.6461774128656597  0.9129351336054241  0.08295119860027134  1.0000
  C   C3        1.0  0.6948531043746689  0.09161093484925797  0.42360541720827016  1.0000
  C   C4        1.0  0.6394417933238555  0.5249183724078714  0.9257785318895418  1.0000
  C   C5        1.0  0.06246572478345369  0.3583439865290514  0.7272438128403739  1.0000
  C   C6        1.0  0.4701154548662114  0.3824785967629223  0.7578880694595436  1.0000
  C   C7        1.0  0.7113664603440206  0.7706805701117394  0.32381752210205983  1.0000
  C   C8        1.0  0.9070400244683706  0.5255716769406  0.16323294157284882  1.0000
  N   N1        1.0  0.35702181147501855  0.7935769624556155  0.5720183834888533  1.0000
  N   N2        1.0  0.8692937971968673  0.8612454680796955  0.10439915047290427  1.0000
  N   N3        1.0  0.5902889841454948  0.9967593633821299  0.3724587053466377  1.0000
  N   N4        1.0  0.4574903738310967  0.7185325268935769  0.9259911990880252  1.0000
  O   O1        1.0  0.9175952958851205  0.8342997443807875  0.5887324771719283  1.0000
  O   O2        1.0  0.4964413348208171  0.07169601597481151  0.05648850641868486  1.0000
  O   O3        1.0  0.7995144694536169  0.3561537657777193  0.4501969728378979  1.0000
  O   O4        1.0  0.8653655544647895  0.476352118958983  0.913739863597887  1.0000
  O   O5        1.0  0.140001176653749  0.41064641152522263  0.6748400973164359  1.0000
  O   O6        1.0  0.5411098856193617  0.543436734260712  0.7131563542765136  1.0000
  O   O7        1.0  0.5390885974327733  0.5778300770913873  0.29411682936212463  1.0000
  O   O8        1.0  0.7487759348484542  0.33735220190605286  0.18042095155452514  1.0000
  O   O9        1.0  0.008957483151422974  0.263984957253685  0.7847854817893088  1.0000
  O   O10       1.0  0.4528421342004787  0.1493487793327224  0.8027306348656815  1.0000
  O   O11       1.0  0.9486598233736672  0.7129628817904481  0.3085932845046864  1.0000
  O   O12       1.0  0.1261959604171598  0.49158102645303337  0.17481743885366197  1.0000
data_image115
_chemical_formula_structural       Na4C8N4O12
_chemical_formula_sum              "Na4 C8 N4 O12"
_cell_length_a       5.423166
_cell_length_b       3.6248270000000002
_cell_length_c       20.275782753631116
_cell_angle_alpha    88.79220736031418
_cell_angle_beta     90.0
_cell_angle_gamma    90.0

_space_group_name_H-M_alt    "P 1"
_space_group_IT_number       1

loop_
  _space_group_symop_operation_xyz
  'x, y, z'

loop_
  _atom_site_type_symbol
  _atom_site_label
  _atom_site_symmetry_multiplicity
  _atom_site_fract_x
  _atom_site_fract_y
  _atom_site_fract_z
  _atom_site_occupancy
  Na  Na1       1.0  0.24231946599500853  0.9877147782780007  0.006089319341569421  1.0000
  Na  Na2       1.0  0.5341243483968813  0.3066509661918882  0.5792627941420442  1.0000
  Na  Na3       1.0  0.3954728180498025  0.04136972393288116  0.1607219142045953  1.0000
  Na  Na4       1.0  0.12113722745368194  0.48386170844714727  0.39929949776726265  1.0000
  C   C1        1.0  0.06533468905815397  0.5625078414328889  0.529760602214343  1.0000
  C   C2        1.0  0.7658237140222162  0.07198125149989738  0.07049778113856209  1.0000
  C   C3        1.0  0.6725362425603063  0.9941369939304423  0.429765501471037  1.0000
  C   C4        1.0  0.7683355577117793  0.8141203488576652  0.9190934028937154  1.0000
  C   C5        1.0  0.11790482241088474  0.21471949603128682  0.736653982840718  1.0000
  C   C6        1.0  0.5564342695983697  0.3332928264180295  0.7564087206557614  1.0000
  C   C7        1.0  0.6040729316012067  0.7991037425422665  0.31595532513709434  1.0000
  C   C8        1.0  0.8166120345398385  0.3590712110710188  0.16998970439193065  1.0000
  N   N1        1.0  0.23039419862760166  0.7372410909910306  0.506896968189779  1.0000
  N   N2        1.0  0.9580325094838691  0.9120974148220792  0.07661868647171977  1.0000
  N   N3        1.0  0.5037992244790068  0.9587744192376464  0.386968510534592  1.0000
  N   N4        1.0  0.5420750411773966  0.8724691141430461  0.929753912229109  1.0000
  O   O1        1.0  0.9117371491379669  0.4091439006332425  0.5624278809932861  1.0000
  O   O2        1.0  0.5667155930459483  0.16386533470336712  0.049826084975640006  1.0000
  O   O3        1.0  0.8091411903877281  0.010364394394261622  0.47702326424121555  1.0000
  O   O4        1.0  0.9890916145376076  0.8091385734207921  0.9114823848116209  1.0000
  O   O5        1.0  0.1399399239787924  0.2812214831430362  0.6796448215346502  1.0000
  O   O6        1.0  0.6245271140908988  0.5024944455103357  0.7052387335524551  1.0000
  O   O7        1.0  0.4563781613424504  0.7244013036878214  0.2724179922140159  1.0000
  O   O8        1.0  0.6322720888589007  0.5455348997873019  0.16586111735465045  1.0000
  O   O9        1.0  0.050121665667599125  0.17942352485230684  0.7918987202665408  1.0000
  O   O10       1.0  0.526220217424684  0.1526215157043036  0.8049180409846489  1.0000
  O   O11       1.0  0.8284669187487211  0.7899735006170714  0.31670693991793425  1.0000
  O   O12       1.0  0.01785320327770586  0.27845285536848907  0.19252653061345076  1.0000
data_image116
_chemical_formula_structural       Na4C8N4O12
_chemical_formula_sum              "Na4 C8 N4 O12"
_cell_length_a       5.423166
_cell_length_b       3.6248270000000002
_cell_length_c       20.275782753631116
_cell_angle_alpha    88.79220736031418
_cell_angle_beta     90.0
_cell_angle_gamma    90.0

_space_group_name_H-M_alt    "P 1"
_space_group_IT_number       1

loop_
  _space_group_symop_operation_xyz
  'x, y, z'

loop_
  _atom_site_type_symbol
  _atom_site_label
  _atom_site_symmetry_multiplicity
  _atom_site_fract_x
  _atom_site_fract_y
  _atom_site_fract_z
  _atom_site_occupancy
  Na  Na1       1.0  0.3286957527945322  0.14764933263233293  0.9978113368244407  1.0000
  Na  Na2       1.0  0.5577576277562349  0.4938455634422206  0.6296937324646664  1.0000
  Na  Na3       1.0  0.31030010437332045  0.15628785377693682  0.17308852280857664  1.0000
  Na  Na4       1.0  0.03632200287975085  0.6253362747735203  0.40415582536695877  1.0000
  C   C1        1.0  0.02995991953899878  0.3767802396038834  0.5447161236331457  1.0000
  C   C2        1.0  0.8687721352059998  0.009407175617683006  0.054415537264234315  1.0000
  C   C3        1.0  0.539562220933179  0.07177184337429166  0.39875693168722454  1.0000
  C   C4        1.0  0.9503379030888774  0.7661074623629187  0.8893188902789164  1.0000
  C   C5        1.0  0.14214679293016186  0.07230663955698136  0.7535689524720922  1.0000
  C   C6        1.0  0.6290832079931261  0.43471905285223644  0.7702064195506347  1.0000
  C   C7        1.0  0.48350111580894584  0.6857666616063803  0.30788064743400245  1.0000
  C   C8        1.0  0.8133878190728607  0.5696559617887751  0.18817681991370105  1.0000
  N   N1        1.0  0.21495577818195818  0.2937042030050764  0.5145207461738059  1.0000
  N   N2        1.0  0.0710940345787866  0.9097191044829889  0.06300945171307637  1.0000
  N   N3        1.0  0.3863678640632804  0.03996821696694719  0.3569185506408322  1.0000
  N   N4        1.0  0.8022787095636452  0.5288422349512121  0.872376403078777  1.0000
  O   O1        1.0  0.8463568889549095  0.40104106565313574  0.5776376673342504  1.0000
  O   O2        1.0  0.6518144186059469  0.06389062345851299  0.04304388175619178  1.0000
  O   O3        1.0  0.6713554837900217  0.9164594398113255  0.4420356277294671  1.0000
  O   O4        1.0  0.08508010863666753  0.9657236251981884  0.9232737958559021  1.0000
  O   O5        1.0  0.22382326506636674  0.03386096963022078  0.6984455011637805  1.0000
  O   O6        1.0  0.7671052085322443  0.5009181707716355  0.7229949062528853  1.0000
  O   O7        1.0  0.3150112917624081  0.5065651239209926  0.2751886930083868  1.0000
  O   O8        1.0  0.6019827482451798  0.5305128924056403  0.17855368695053678  1.0000
  O   O9        1.0  0.009550875742495135  0.09402240574107124  0.8024619115464211  1.0000
  O   O10       1.0  0.4780857442035664  0.23790383260848147  0.800850290673336  1.0000
  O   O11       1.0  0.7025260320356792  0.7592625017312651  0.2907292075844739  1.0000
  O   O12       1.0  0.009107312272147138  0.7099440314633148  0.18752906589426824  1.0000
data_image117
_chemical_formula_structural       Na4C8N4O12
_chemical_formula_sum              "Na4 C8 N4 O12"
_cell_length_a       5.423166
_cell_length_b       3.6248270000000002
_cell_length_c       20.275782753631116
_cell_angle_alpha    88.79220736031418
_cell_angle_beta     90.0
_cell_angle_gamma    90.0

_space_group_name_H-M_alt    "P 1"
_space_group_IT_number       1

loop_
  _space_group_symop_operation_xyz
  'x, y, z'

loop_
  _atom_site_type_symbol
  _atom_site_label
  _atom_site_symmetry_multiplicity
  _atom_site_fract_x
  _atom_site_fract_y
  _atom_site_fract_z
  _atom_site_occupancy
  Na  Na1       1.0  0.39767632711057144  0.35348348931905604  0.9785897363002506  1.0000
  Na  Na2       1.0  0.5188043733509418  0.6609056718059269  0.5815826143557581  1.0000
  Na  Na3       1.0  0.33062653083305305  0.14026326505322886  0.17396000147736101  1.0000
  Na  Na4       1.0  0.8700777614973237  0.5075039823805059  0.4072062704797808  1.0000
  C   C1        1.0  0.9432829775810211  0.24114916895652794  0.575392990424344  1.0000
  C   C2        1.0  0.9469772884758465  0.11236949363358809  0.03751493547563989  1.0000
  C   C3        1.0  0.537047744744322  0.9804252792222079  0.43014281983478536  1.0000
  C   C4        1.0  0.01516673664352619  0.7888223176375029  0.8976344382104978  1.0000
  C   C5        1.0  0.13027109354278554  0.9199957709858739  0.7096518496409968  1.0000
  C   C6        1.0  0.671013870007731  0.3918579449821884  0.7678038800736104  1.0000
  C   C7        1.0  0.45355876482663326  0.6429960988394515  0.32530031341279353  1.0000
  C   C8        1.0  0.8381634140744897  0.70160673157504  0.18081869084250138  1.0000
  N   N1        1.0  0.09604831939780137  0.38583404329926746  0.5455818484450254  1.0000
  N   N2        1.0  0.09857241590921062  0.9267793768121008  0.05663244197572137  1.0000
  N   N3        1.0  0.41717007804733286  0.7602504987195964  0.4011965410236865  1.0000
  N   N4        1.0  0.8231597200756764  0.5745555988187891  0.8986384406350723  1.0000
  O   O1        1.0  0.7609424950787411  0.11200579997311448  0.6018275795126351  1.0000
  O   O2        1.0  0.7696110081602642  0.3131220361457239  0.03686349075093287  1.0000
  O   O3        1.0  0.6200557840969845  0.02620894682395014  0.48507523699419175  1.0000
  O   O4        1.0  0.2368633307773301  0.8712116712857747  0.9020163756817865  1.0000
  O   O5        1.0  0.17838028486706747  0.816516337351364  0.6602865205861277  1.0000
  O   O6        1.0  0.6310044970906294  0.5682674499153135  0.7222137643485333  1.0000
  O   O7        1.0  0.26440782457316764  0.5566318429405319  0.2945976951794831  1.0000
  O   O8        1.0  0.6838993037072009  0.4833419629345738  0.1694735062186235  1.0000
  O   O9        1.0  0.12522580025399055  0.10055433866124464  0.7573406133074811  1.0000
  O   O10       1.0  0.6345166340125767  0.1481113163545842  0.8097326238959502  1.0000
  O   O11       1.0  0.652262571078883  0.6960237465132223  0.2967051348581799  1.0000
  O   O12       1.0  0.9461597305236273  0.9480823288169  0.2014910659628693  1.0000
data_image118
_chemical_formula_structural       Na4C8N4O12
_chemical_formula_sum              "Na4 C8 N4 O12"
_cell_length_a       5.423166
_cell_length_b       3.6248270000000002
_cell_length_c       20.275782753631116
_cell_angle_alpha    88.79220736031418
_cell_angle_beta     90.0
_cell_angle_gamma    90.0

_space_group_name_H-M_alt    "P 1"
_space_group_IT_number       1

loop_
  _space_group_symop_operation_xyz
  'x, y, z'

loop_
  _atom_site_type_symbol
  _atom_site_label
  _atom_site_symmetry_multiplicity
  _atom_site_fract_x
  _atom_site_fract_y
  _atom_site_fract_z
  _atom_site_occupancy
  Na  Na1       1.0  0.5518130479098871  0.3082331896622109  0.9493353944065003  1.0000
  Na  Na2       1.0  0.3450393223635517  0.4509075971099471  0.540654582372587  1.0000
  Na  Na3       1.0  0.40336226098191724  0.1462090899381593  0.1639417327369485  1.0000
  Na  Na4       1.0  0.8870819420428452  0.3099773751132071  0.38968706371294065  1.0000
  C   C1        1.0  0.8949729555260162  0.23075892921326435  0.5466178132982739  1.0000
  C   C2        1.0  0.07882552107078333  0.2545895649251313  0.05752825303165521  1.0000
  C   C3        1.0  0.41137375391825026  0.9763467332508784  0.42105932544948904  1.0000
  C   C4        1.0  0.04757029732527385  0.011948893642409697  0.9196096317465952  1.0000
  C   C5        1.0  0.22705080735043337  0.040179359430769335  0.7102760044081147  1.0000
  C   C6        1.0  0.7123884387037429  0.3079957279854979  0.7668084360778059  1.0000
  C   C7        1.0  0.27633184937776345  0.5113719992512011  0.35392253093370357  1.0000
  C   C8        1.0  0.8307486259710039  0.7727979673103613  0.18784816280884833  1.0000
  N   N1        1.0  0.979420943630557  0.3234119771843868  0.4943279974340464  1.0000
  N   N2        1.0  0.3069649595094385  0.3106513319111914  0.0642172054138328  1.0000
  N   N3        1.0  0.27134228098036317  0.7361542773745491  0.40220670413206516  1.0000
  N   N4        1.0  0.851709467977313  0.906920533730607  0.9423990378629908  1.0000
  O   O1        1.0  0.8182604598655282  0.14596161393239238  0.602350535402149  1.0000
  O   O2        1.0  0.8362638512230748  0.19315565416011968  0.056701488990891  1.0000
  O   O3        1.0  0.4816125623471117  0.04811329425353206  0.4735913511410339  1.0000
  O   O4        1.0  0.2533939725664749  0.06730439945286415  0.8946028710441345  1.0000
  O   O5        1.0  0.2736861602278309  0.8714854723891918  0.6667561687259612  1.0000
  O   O6        1.0  0.7459271792636466  0.5802457395289742  0.7373488930065807  1.0000
  O   O7        1.0  0.10184988615149976  0.4631967826508775  0.31310177449245874  1.0000
  O   O8        1.0  0.6156261729198068  0.633701703131206  0.19133421776728068  1.0000
  O   O9        1.0  0.21178403263195755  0.1655785969785879  0.7612660365060189  1.0000
  O   O10       1.0  0.6017545590435942  0.13018350062312622  0.8082377012661233  1.0000
  O   O11       1.0  0.4926328940400769  0.354494919706154  0.34797352785291025  1.0000
  O   O12       1.0  0.03293574752131389  0.8340456505401657  0.19497528496981112  1.0000
data_image119
_chemical_formula_structural       Na4C8N4O12
_chemical_formula_sum              "Na4 C8 N4 O12"
_cell_length_a       5.423166
_cell_length_b       3.6248270000000002
_cell_length_c       20.275782753631116
_cell_angle_alpha    88.79220736031418
_cell_angle_beta     90.0
_cell_angle_gamma    90.0

_space_group_name_H-M_alt    "P 1"
_space_group_IT_number       1

loop_
  _space_group_symop_operation_xyz
  'x, y, z'

loop_
  _atom_site_type_symbol
  _atom_site_label
  _atom_site_symmetry_multiplicity
  _atom_site_fract_x
  _atom_site_fract_y
  _atom_site_fract_z
  _atom_site_occupancy
  Na  Na1       1.0  0.6227726478624476  0.3426039309640496  0.9608667631493791  1.0000
  Na  Na2       1.0  0.3162245263296237  0.5321280466991863  0.5612993826745174  1.0000
  Na  Na3       1.0  0.38262644439557403  0.299548284100201  0.1769590508325104  1.0000
  Na  Na4       1.0  0.8416859286873142  0.07129501500956792  0.38693053679899797  1.0000
  C   C1        1.0  0.7848298824287181  0.09435444391456028  0.5806190362930919  1.0000
  C   C2        1.0  0.10419512754991789  0.4631132820706108  0.06489695027041398  1.0000
  C   C3        1.0  0.28612870735365936  0.7280736611967475  0.4226088747304047  1.0000
  C   C4        1.0  0.09806555408624718  0.8605412124122283  0.9212960306070402  1.0000
  C   C5        1.0  0.2443783608791832  0.19197293528567894  0.6905549905874983  1.0000
  C   C6        1.0  0.8127460136675677  0.4212387875843959  0.7915518086117415  1.0000
  C   C7        1.0  0.2530680468981939  0.4332951785331528  0.314201429695602  1.0000
  C   C8        1.0  0.8320581819885184  0.8104196704658582  0.19898922034514477  1.0000
  N   N1        1.0  0.9541225033177808  0.18977830082764413  0.5357994152376988  1.0000
  N   N2        1.0  0.2949619323286823  0.2584209474497227  0.06418918069125223  1.0000
  N   N3        1.0  0.12693056430797145  0.6218940694151205  0.38571990805450784  1.0000
  N   N4        1.0  0.9589377306365356  0.6073797828797569  0.9067223365119115  1.0000
  O   O1        1.0  0.6281782963441624  0.9835982571506161  0.6184385541912891  1.0000
  O   O2        1.0  0.8875135267991373  0.5173861042889861  0.041150202183522167  1.0000
  O   O3        1.0  0.3908117157076356  0.8984598425226997  0.46767209651037894  1.0000
  O   O4        1.0  0.29879268238695783  0.0072335949049691095  0.9222223523653935  1.0000
  O   O5        1.0  0.13489797870175035  0.03703703564912697  0.6507940892350914  1.0000
  O   O6        1.0  0.9615490726583273  0.5998940040286729  0.758676442983974  1.0000
  O   O7        1.0  0.15463043467442278  0.6470114799139663  0.2655269585537524  1.0000
  O   O8        1.0  0.618832463901348  0.836140092759075  0.22189156980099736  1.0000
  O   O9        1.0  0.38062724134746095  0.3383757250360393  0.7304066834585793  1.0000
  O   O10       1.0  0.7384402510310157  0.18209897240312678  0.8259352805794955  1.0000
  O   O11       1.0  0.4185008999453207  0.2168039064187245  0.3233450919923507  1.0000
  O   O12       1.0  0.0009116916105937879  0.7833112615382198  0.15554792077424132  1.0000
data_image120
_chemical_formula_structural       Na4C8N4O12
_chemical_formula_sum              "Na4 C8 N4 O12"
_cell_length_a       5.423166
_cell_length_b       3.6248270000000002
_cell_length_c       20.275782753631116
_cell_angle_alpha    88.79220736031418
_cell_angle_beta     90.0
_cell_angle_gamma    90.0

_space_group_name_H-M_alt    "P 1"
_space_group_IT_number       1

loop_
  _space_group_symop_operation_xyz
  'x, y, z'

loop_
  _atom_site_type_symbol
  _atom_site_label
  _atom_site_symmetry_multiplicity
  _atom_site_fract_x
  _atom_site_fract_y
  _atom_site_fract_z
  _atom_site_occupancy
  Na  Na1       1.0  0.7232099414890585  0.2354354830975085  0.946157965527195  1.0000
  Na  Na2       1.0  0.24582821449311765  0.5085109610711286  0.5811347977391226  1.0000
  Na  Na3       1.0  0.33398169912854997  0.46260465943093937  0.17779189571354578  1.0000
  Na  Na4       1.0  0.6384248002512072  0.29440941198695136  0.43434388158660764  1.0000
  C   C1        1.0  0.8200502309349149  0.9960444628690421  0.5456443051476911  1.0000
  C   C2        1.0  0.1751508720319671  0.7391141396615835  0.048930997127496934  1.0000
  C   C3        1.0  0.1791646091099035  0.4409718409636365  0.44079139222606134  1.0000
  C   C4        1.0  0.2331692267044141  0.7887726147613681  0.8856728262533891  1.0000
  C   C5        1.0  0.2393361027898271  0.12674189057851404  0.7019178235731742  1.0000
  C   C6        1.0  0.862590927446597  0.40647048403443686  0.7876952340238438  1.0000
  C   C7        1.0  0.2232513160768078  0.432776697576828  0.31793925513864413  1.0000
  C   C8        1.0  0.7932721620195492  0.6797066909856917  0.23208771109438545  1.0000
  N   N1        1.0  0.9783857475165062  0.14751904517924136  0.5106349332801176  1.0000
  N   N2        1.0  0.36436206945193106  0.6995142965703438  0.08246170386747709  1.0000
  N   N3        1.0  0.09267423552576415  0.46900272216230454  0.3847873043699365  1.0000
  N   N4        1.0  0.031429085762936015  0.9219896712217546  0.8950630664804252  1.0000
  O   O1        1.0  0.6675774723965255  0.9182456976482339  0.5780095477463418  1.0000
  O   O2        1.0  0.988600251655617  0.646004531543723  0.011966825244457358  1.0000
  O   O3        1.0  0.33530686350610317  0.6410289744887554  0.4714298279684989  1.0000
  O   O4        1.0  0.4548017000621972  0.738929373351072  0.8795621460687779  1.0000
  O   O5        1.0  0.032116278984384294  0.020277861120318263  0.6909060495403185  1.0000
  O   O6        1.0  0.06902494080532229  0.503436676656865  0.7775678554981413  1.0000
  O   O7        1.0  0.15629603520332833  0.6321595471020882  0.26932299408991306  1.0000
  O   O8        1.0  0.694251245615364  0.8529593382217351  0.27835898898617806  1.0000
  O   O9        1.0  0.45358271050018373  0.2785690855021712  0.6956360848678189  1.0000
  O   O10       1.0  0.6493913282149646  0.3443016444636573  0.8045798982759472  1.0000
  O   O11       1.0  0.39438939849978955  0.24479781041365256  0.30772065833326456  1.0000
  O   O12       1.0  0.83997576706902  0.6658021425321659  0.17535985145951571  1.0000
data_image121
_chemical_formula_structural       Na4C8N4O12
_chemical_formula_sum              "Na4 C8 N4 O12"
_cell_length_a       5.423166
_cell_length_b       3.6248270000000002
_cell_length_c       20.275782753631116
_cell_angle_alpha    88.79220736031418
_cell_angle_beta     90.0
_cell_angle_gamma    90.0

_space_group_name_H-M_alt    "P 1"
_space_group_IT_number       1

loop_
  _space_group_symop_operation_xyz
  'x, y, z'

loop_
  _atom_site_type_symbol
  _atom_site_label
  _atom_site_symmetry_multiplicity
  _atom_site_fract_x
  _atom_site_fract_y
  _atom_site_fract_z
  _atom_site_occupancy
  Na  Na1       1.0  0.9149394670535407  0.4526631496398028  0.95552172399391  1.0000
  Na  Na2       1.0  0.12247943403971784  0.3989164310164834  0.5685184659698694  1.0000
  Na  Na3       1.0  0.3523607139355157  0.2635392160911374  0.19556896521468467  1.0000
  Na  Na4       1.0  0.6807092083229856  0.07872695799341423  0.40926048900579337  1.0000
  C   C1        1.0  0.6334487475497355  0.982453950230862  0.5436267970115811  1.0000
  C   C2        1.0  0.1741730739118842  0.0400223352521627  0.041927354348485935  1.0000
  C   C3        1.0  0.09517414727341889  0.6372733304567069  0.41284488388662266  1.0000
  C   C4        1.0  0.4447489843750201  0.9029490779151337  0.9313086996879106  1.0000
  C   C5        1.0  0.27451472781078934  0.021298135390031447  0.663980437229513  1.0000
  C   C6        1.0  0.9514092870856756  0.2803993388830659  0.8003939737288421  1.0000
  C   C7        1.0  0.14465678797059947  0.3743648059853115  0.3234627398994455  1.0000
  C   C8        1.0  0.7402463314440276  0.7886063295948853  0.2211072162464613  1.0000
  N   N1        1.0  0.8298879231796225  0.8506645441096724  0.5396429355236693  1.0000
  N   N2        1.0  0.35853064166298665  0.2003304482833288  0.06129612872284529  1.0000
  N   N3        1.0  0.9771742125313704  0.5608883569860246  0.364007129933732  1.0000
  N   N4        1.0  0.23110166648862318  0.9709156957357259  0.9321243252771959  1.0000
  O   O1        1.0  0.43974092279738863  0.13654251845584406  0.552217600565954  1.0000
  O   O2        1.0  0.9957707423991523  0.8279460254268801  0.05134565332159213  1.0000
  O   O3        1.0  0.2632961863671015  0.6548504608867125  0.45305302411246384  1.0000
  O   O4        1.0  0.6632672879952389  0.9324693027792439  0.9239525147252545  1.0000
  O   O5        1.0  0.09173339617271759  0.8332218790007935  0.6557122979766535  1.0000
  O   O6        1.0  0.1144953718118984  0.4640475449568373  0.8135695474086215  1.0000
  O   O7        1.0  0.05510215447734329  0.18662268006686566  0.2802194150786638  1.0000
  O   O8        1.0  0.6420580357815183  0.7814171982686469  0.2696792396884931  1.0000
  O   O9        1.0  0.4695883351401453  0.14732797263583208  0.6748438091538701  1.0000
  O   O10       1.0  0.7639846622898676  0.17647517239256372  0.775667443629765  1.0000
  O   O11       1.0  0.3639324500730017  0.3627601249018876  0.33854497771560177  1.0000
  O   O12       1.0  0.7955344778903478  0.8068671657288509  0.16267543220718153  1.0000
data_image122
_chemical_formula_structural       Na4C8N4O12
_chemical_formula_sum              "Na4 C8 N4 O12"
_cell_length_a       5.423166
_cell_length_b       3.6248270000000002
_cell_length_c       20.275782753631116
_cell_angle_alpha    88.79220736031418
_cell_angle_beta     90.0
_cell_angle_gamma    90.0

_space_group_name_H-M_alt    "P 1"
_space_group_IT_number       1

loop_
  _space_group_symop_operation_xyz
  'x, y, z'

loop_
  _atom_site_type_symbol
  _atom_site_label
  _atom_site_symmetry_multiplicity
  _atom_site_fract_x
  _atom_site_fract_y
  _atom_site_fract_z
  _atom_site_occupancy
  Na  Na1       1.0  0.005235296576367787  0.3750626330097814  0.961854204672178  1.0000
  Na  Na2       1.0  0.9448742952213114  0.24633529767955756  0.5821337202909478  1.0000
  Na  Na3       1.0  0.4219893382600342  0.2979152155676362  0.19956287930496674  1.0000
  Na  Na4       1.0  0.6523184208623071  0.9485055512843736  0.38074637985850524  1.0000
  C   C1        1.0  0.4909127123393838  0.9398470574216515  0.5385605473657363  1.0000
  C   C2        1.0  0.22529900493867905  0.30604539614501136  0.07975381794325731  1.0000
  C   C3        1.0  0.07222583547800876  0.5628993558219371  0.40043457515823155  1.0000
  C   C4        1.0  0.4896138438414326  0.9986704667034425  0.9345235740024649  1.0000
  C   C5        1.0  0.33152675983888424  0.06380355029605678  0.6871291288057723  1.0000
  C   C6        1.0  0.9202495431219886  0.34780416989599816  0.8085643649451313  1.0000
  C   C7        1.0  0.11261348911161251  0.14402107546017717  0.29799819774425185  1.0000
  C   C8        1.0  0.8430129103498424  0.7546254041463956  0.21401079594083502  1.0000
  N   N1        1.0  0.6840948563238646  0.759995074951634  0.5374461148990392  1.0000
  N   N2        1.0  0.3338945951230802  0.5614832234723488  0.10189170187389296  1.0000
  N   N3        1.0  0.006645986481720101  0.3364549578457696  0.3574380507211814  1.0000
  N   N4        1.0  0.3703891942204267  0.7630951641955246  0.9629057024120802  1.0000
  O   O1        1.0  0.31217675862505534  0.12273541684590569  0.5328777596642063  1.0000
  O   O2        1.0  0.06206670728838579  0.15033671096872947  0.05028849334308583  1.0000
  O   O3        1.0  0.18963114319595742  0.7891657015396603  0.4335625237571362  1.0000
  O   O4        1.0  0.6334093844562848  0.1659500819230333  0.9057262506119307  1.0000
  O   O5        1.0  0.16519368066195095  0.8848447453814727  0.6755093920636441  1.0000
  O   O6        1.0  0.9559895668028908  0.5886119890845296  0.846111484992765  1.0000
  O   O7        1.0  0.04048212526791224  0.2533269734907424  0.23943654632134853  1.0000
  O   O8        1.0  0.788953269680227  0.7299246303174487  0.27393492328103647  1.0000
  O   O9        1.0  0.471502439844113  0.2507580591725458  0.7142134612097513  1.0000
  O   O10       1.0  0.8814482726141533  0.19264520568965615  0.7563112650814535  1.0000
  O   O11       1.0  0.3003657471302029  0.943902378184406  0.2968608824753422  1.0000
  O   O12       1.0  0.9062987588291672  0.7800682257148277  0.16156991618636368  1.0000
data_image123
_chemical_formula_structural       Na4C8N4O12
_chemical_formula_sum              "Na4 C8 N4 O12"
_cell_length_a       5.423166
_cell_length_b       3.6248270000000002
_cell_length_c       20.275782753631116
_cell_angle_alpha    88.79220736031418
_cell_angle_beta     90.0
_cell_angle_gamma    90.0

_space_group_name_H-M_alt    "P 1"
_space_group_IT_number       1

loop_
  _space_group_symop_operation_xyz
  'x, y, z'

loop_
  _atom_site_type_symbol
  _atom_site_label
  _atom_site_symmetry_multiplicity
  _atom_site_fract_x
  _atom_site_fract_y
  _atom_site_fract_z
  _atom_site_occupancy
  Na  Na1       1.0  0.9909025552414279  0.14361370159849263  0.9456463407823011  1.0000
  Na  Na2       1.0  0.8947821564217964  0.3614058716632857  0.5631745695421733  1.0000
  Na  Na3       1.0  0.5220692302033512  0.27422894830572325  0.14237517786128026  1.0000
  Na  Na4       1.0  0.7245910872694349  0.7431660931234263  0.37488286888127764  1.0000
  C   C1        1.0  0.4214884411920504  0.9313738091619692  0.5494985714769215  1.0000
  C   C2        1.0  0.19335038645699087  0.5891544385616447  0.07425291573820925  1.0000
  C   C3        1.0  0.10411775087036834  0.3599605508069157  0.4024796533178943  1.0000
  C   C4        1.0  0.4696763670739692  0.11074199177332744  0.9558193702596915  1.0000
  C   C5        1.0  0.10540530885188115  0.943496009355556  0.6956907178470874  1.0000
  C   C6        1.0  0.945514552298993  0.5300587177819607  0.8145491013548014  1.0000
  C   C7        1.0  0.3076867012347665  0.020138668631362933  0.3009091867920923  1.0000
  C   C8        1.0  0.8420588855409504  0.8896325425977656  0.19673185606677893  1.0000
  N   N1        1.0  0.6344855927360213  0.838822494022985  0.5407502416746656  1.0000
  N   N2        1.0  0.30782164773543064  0.7902998209772565  0.11360172124062484  1.0000
  N   N3        1.0  0.08016462791577328  0.2618418657779853  0.34173514990034093  1.0000
  N   N4        1.0  0.35067553079356095  0.833912952901301  0.9653069024518652  1.0000
  O   O1        1.0  0.2385149089114098  0.06707058670137737  0.566449407673323  1.0000
  O   O2        1.0  0.07067756393755616  0.41973305641889724  0.03608879657369779  1.0000
  O   O3        1.0  0.2519165082402923  0.39651670025144914  0.44638421285141733  1.0000
  O   O4        1.0  0.6681088505247109  0.3049154979553319  0.9457544025986219  1.0000
  O   O5        1.0  0.9082215136509351  0.9286098101927709  0.6667363505309427  1.0000
  O   O6        1.0  0.04492685094502091  0.6702238082308418  0.8596838572776277  1.0000
  O   O7        1.0  0.2872513137049116  0.08851128390855223  0.24236031429560564  1.0000
  O   O8        1.0  0.780518167687027  0.922580483902149  0.2512037738973913  1.0000
  O   O9        1.0  0.2766680290437773  0.00023462312900557336  0.7246663205662766  1.0000
  O   O10       1.0  0.8062063031889473  0.34049934739412246  0.7904328077557512  1.0000
  O   O11       1.0  0.4337673192668037  0.7633536114445416  0.33764024530025016  1.0000
  O   O12       1.0  0.8758154721976676  0.9914321813408207  0.13729090504025318  1.0000
data_image124
_chemical_formula_structural       Na4C8N4O12
_chemical_formula_sum              "Na4 C8 N4 O12"
_cell_length_a       5.423166
_cell_length_b       3.6248270000000002
_cell_length_c       20.275782753631116
_cell_angle_alpha    88.79220736031418
_cell_angle_beta     90.0
_cell_angle_gamma    90.0

_space_group_name_H-M_alt    "P 1"
_space_group_IT_number       1

loop_
  _space_group_symop_operation_xyz
  'x, y, z'

loop_
  _atom_site_type_symbol
  _atom_site_label
  _atom_site_symmetry_multiplicity
  _atom_site_fract_x
  _atom_site_fract_y
  _atom_site_fract_z
  _atom_site_occupancy
  Na  Na1       1.0  0.048425502357470784  0.116554653675495  0.9123808217701125  1.0000
  Na  Na2       1.0  0.9720511932332176  0.3585244148139488  0.5684190781894405  1.0000
  Na  Na3       1.0  0.6127605560440413  0.34067137632762684  0.06604333766983463  1.0000
  Na  Na4       1.0  0.6704844451904861  0.7808379200108071  0.4107230216862445  1.0000
  C   C1        1.0  0.47414649087936345  0.7927226707181865  0.5293525203791232  1.0000
  C   C2        1.0  0.03437208408776116  0.7909891536325935  0.09660435022973224  1.0000
  C   C3        1.0  0.06690520104640285  0.18140216881281046  0.4150921544934129  1.0000
  C   C4        1.0  0.5458146583848626  0.2313391264686433  0.9578742755645939  1.0000
  C   C5        1.0  0.9138372817822242  0.7394549853543873  0.695381572487279  1.0000
  C   C6        1.0  0.949431260192698  0.5713175743249577  0.8262209282667903  1.0000
  C   C7        1.0  0.45629606679520535  0.953772746750986  0.2678235100802334  1.0000
  C   C8        1.0  0.920383787246724  0.0648908884335877  0.23230461270064912  1.0000
  N   N1        1.0  0.6580931937521979  0.9255267945428259  0.5047220468040746  1.0000
  N   N2        1.0  0.21790680766288562  0.6174257200929938  0.09235874451681658  1.0000
  N   N3        1.0  0.05816862210160245  0.13812561053486538  0.3589254070427416  1.0000
  N   N4        1.0  0.3433268196362256  0.1154710654980593  0.978127575581193  1.0000
  O   O1        1.0  0.3405579879165619  0.6460952233010733  0.5695603934980246  1.0000
  O   O2        1.0  0.8231830402495952  0.8353942718754226  0.08627984340282535  1.0000
  O   O3        1.0  0.03012137033133455  0.3587103203847093  0.46867364703427294  1.0000
  O   O4        1.0  0.7787892904975989  0.3700666838316802  0.9502945580924886  1.0000
  O   O5        1.0  0.8079341163393162  0.48711049803430573  0.6730897936233217  1.0000
  O   O6        1.0  0.17071763545274576  0.5169626434670045  0.8295798760504576  1.0000
  O   O7        1.0  0.44023311018479255  0.18196468238538033  0.22905412677374373  1.0000
  O   O8        1.0  0.988057863717207  0.8013865233681451  0.26497839087597025  1.0000
  O   O9        1.0  0.055493903963389046  0.9790403837087553  0.7004526147676834  1.0000
  O   O10       1.0  0.7385050285273209  0.5597224120066879  0.8289332048685265  1.0000
  O   O11       1.0  0.4822642721481775  0.7849857635170081  0.32023693326677816  1.0000
  O   O12       1.0  0.8457339967900808  0.2374445079535623  0.18328114438336401  1.0000
data_image125
_chemical_formula_structural       Na4C8N4O12
_chemical_formula_sum              "Na4 C8 N4 O12"
_cell_length_a       5.423166
_cell_length_b       3.6248270000000002
_cell_length_c       20.275782753631116
_cell_angle_alpha    88.79220736031418
_cell_angle_beta     90.0
_cell_angle_gamma    90.0

_space_group_name_H-M_alt    "P 1"
_space_group_IT_number       1

loop_
  _space_group_symop_operation_xyz
  'x, y, z'

loop_
  _atom_site_type_symbol
  _atom_site_label
  _atom_site_symmetry_multiplicity
  _atom_site_fract_x
  _atom_site_fract_y
  _atom_site_fract_z
  _atom_site_occupancy
  Na  Na1       1.0  0.11450655340355886  0.9506974606833221  0.9186921809083297  1.0000
  Na  Na2       1.0  0.021606769158265204  0.23257651345477534  0.5925006578601224  1.0000
  Na  Na3       1.0  0.5546356711408565  0.3789101467025596  0.09365532214575813  1.0000
  Na  Na4       1.0  0.5624923529796498  0.6039446025939599  0.4299714027643029  1.0000
  C   C1        1.0  0.399747743446327  0.9187693259038349  0.5579040464467591  1.0000
  C   C2        1.0  0.009236527891294588  0.7146920673129726  0.08422549653814881  1.0000
  C   C3        1.0  0.1719823694205187  0.32909882467385776  0.4325710627626729  1.0000
  C   C4        1.0  0.6440529165088185  0.3560985732717752  0.9202813691507561  1.0000
  C   C5        1.0  0.7933044410989619  0.7682852872869645  0.6782484414158266  1.0000
  C   C6        1.0  0.8999349100980059  0.6180387021557039  0.8097038324844766  1.0000
  C   C7        1.0  0.5054090219856856  0.9389047996780451  0.25393768297251856  1.0000
  C   C8        1.0  0.03265116126346057  0.9354738496564583  0.23912206382363385  1.0000
  N   N1        1.0  0.5942028852024295  0.9453848655478293  0.5346946143158849  1.0000
  N   N2        1.0  0.21255492277517218  0.6117315138466419  0.06833597072364928  1.0000
  N   N3        1.0  0.20019831751389172  0.12000302371186855  0.38751970641747874  1.0000
  N   N4        1.0  0.4411976458255715  0.17047004231799745  0.9127919051486645  1.0000
  O   O1        1.0  0.212159622167154  0.7771758721235853  0.5770632660487095  1.0000
  O   O2        1.0  0.8162424394369026  0.9093701277194268  0.09461728647641698  1.0000
  O   O3        1.0  0.15665881716586894  0.47779720042623763  0.48429378929477335  1.0000
  O   O4        1.0  0.813240502557963  0.564934494744771  0.9414722813175118  1.0000
  O   O5        1.0  0.5973783387711044  0.6257666811717901  0.6707070840281932  1.0000
  O   O6        1.0  0.009622893768509666  0.35863734068100506  0.8067464593735993  1.0000
  O   O7        1.0  0.43586683338258336  0.1385278650601619  0.21310630586347412  1.0000
  O   O8        1.0  0.13681634155588318  0.6889605800090303  0.2603966791751966  1.0000
  O   O9        1.0  0.9745912266507016  0.9037325626556127  0.6823804193852306  1.0000
  O   O10       1.0  0.738878362745945  0.8307904571110907  0.7924253234603074  1.0000
  O   O11       1.0  0.5670115525716557  0.6836967170667163  0.2916602830350566  1.0000
  O   O12       1.0  0.8948395020549981  0.18606929268418737  0.23910924372508974  1.0000
data_image126
_chemical_formula_structural       Na4C8N4O12
_chemical_formula_sum              "Na4 C8 N4 O12"
_cell_length_a       5.423166
_cell_length_b       3.6248270000000002
_cell_length_c       20.275782753631116
_cell_angle_alpha    88.79220736031418
_cell_angle_beta     90.0
_cell_angle_gamma    90.0

_space_group_name_H-M_alt    "P 1"
_space_group_IT_number       1

loop_
  _space_group_symop_operation_xyz
  'x, y, z'

loop_
  _atom_site_type_symbol
  _atom_site_label
  _atom_site_symmetry_multiplicity
  _atom_site_fract_x
  _atom_site_fract_y
  _atom_site_fract_z
  _atom_site_occupancy
  Na  Na1       1.0  0.2061159451140353  0.029768242319186622  0.9449226850613021  1.0000
  Na  Na2       1.0  0.9542598744447168  0.4779153208236464  0.5649688216679755  1.0000
  Na  Na3       1.0  0.5687345383850243  0.26787494201837864  0.12427237066327707  1.0000
  Na  Na4       1.0  0.4866503618037511  0.7474272571807936  0.4112665748736679  1.0000
  C   C1        1.0  0.45902754489851216  0.9438654332841494  0.538629835486856  1.0000
  C   C2        1.0  0.053950488144391184  0.8042081495673783  0.0666304158082418  1.0000
  C   C3        1.0  0.1357769628251011  0.2629672264509224  0.4263906811096854  1.0000
  C   C4        1.0  0.5847929492164718  0.5097510191025991  0.9337483725678899  1.0000
  C   C5        1.0  0.684675756105733  0.6740874227863931  0.6651383535908724  1.0000
  C   C6        1.0  0.9264904565100391  0.4222014350562955  0.7942320654858723  1.0000
  C   C7        1.0  0.5219750071422941  0.9916199104727919  0.2812594496943898  1.0000
  C   C8        1.0  0.06525763111567717  0.7056593299685929  0.251265305186914  1.0000
  N   N1        1.0  0.6607315269497026  0.9544682112080707  0.504920116304449  1.0000
  N   N2        1.0  0.2997087276605531  0.8747114970090621  0.061682017078241946  1.0000
  N   N3        1.0  0.26625329788164454  0.1628884860134996  0.38270329462948643  1.0000
  N   N4        1.0  0.3814716730168599  0.5087234813283157  0.9146307686600479  1.0000
  O   O1        1.0  0.28806808522157423  0.990603391282333  0.5751778301888866  1.0000
  O   O2        1.0  0.8354462738859667  0.8562826100979948  0.0830086409924431  1.0000
  O   O3        1.0  0.9920293398133058  0.30054504767826296  0.474158649879838  1.0000
  O   O4        1.0  0.7899454276728862  0.4903838249737027  0.965860183259602  1.0000
  O   O5        1.0  0.5235792867522043  0.4591928838958479  0.6597178186352243  1.0000
  O   O6        1.0  0.1528254966913658  0.47713361294489687  0.7875561138137872  1.0000
  O   O7        1.0  0.4248072324401816  0.19126526659849508  0.24148060839270558  1.0000
  O   O8        1.0  0.11441176407247622  0.6391097930038836  0.3037693610408981  1.0000
  O   O9        1.0  0.8748246221906746  0.8738024192117773  0.6778093271941699  1.0000
  O   O10       1.0  0.7037675545236484  0.4309805666950295  0.8000947801210457  1.0000
  O   O11       1.0  0.6194055185569836  0.7975492665091082  0.3220267716575546  1.0000
  O   O12       1.0  0.9679833997470239  0.756964816596349  0.1965340484359513  1.0000
data_image127
_chemical_formula_structural       Na4C8N4O12
_chemical_formula_sum              "Na4 C8 N4 O12"
_cell_length_a       5.423166
_cell_length_b       3.6248270000000002
_cell_length_c       20.275782753631116
_cell_angle_alpha    88.79220736031418
_cell_angle_beta     90.0
_cell_angle_gamma    90.0

_space_group_name_H-M_alt    "P 1"
_space_group_IT_number       1

loop_
  _space_group_symop_operation_xyz
  'x, y, z'

loop_
  _atom_site_type_symbol
  _atom_site_label
  _atom_site_symmetry_multiplicity
  _atom_site_fract_x
  _atom_site_fract_y
  _atom_site_fract_z
  _atom_site_occupancy
  Na  Na1       1.0  0.014315248791438195  0.2646504055873454  0.987922912439856  1.0000
  Na  Na2       1.0  0.9673605924638982  0.6540065664455927  0.5566488269084977  1.0000
  Na  Na3       1.0  0.6567134022861939  0.31468149787292093  0.10989292754999036  1.0000
  Na  Na4       1.0  0.5428370107628432  0.5809159135138757  0.4440153667049716  1.0000
  C   C1        1.0  0.36255405476074154  0.9627848757783022  0.5407364602901096  1.0000
  C   C2        1.0  0.13420399312074882  0.7571271127044974  0.10141154703182953  1.0000
  C   C3        1.0  0.14639785160037877  0.30938373873807246  0.4271971464551465  1.0000
  C   C4        1.0  0.6730431376059007  0.622109501127055  0.9164801313236369  1.0000
  C   C5        1.0  0.5187725301007137  0.6542910236244275  0.677840647821649  1.0000
  C   C6        1.0  0.03138130954140772  0.3782946529707738  0.7804705334550245  1.0000
  C   C7        1.0  0.5592265726824879  0.9525768181017742  0.27240733233846165  1.0000
  C   C8        1.0  0.05058077283042617  0.4737589130690534  0.23993887745450437  1.0000
  N   N1        1.0  0.5732549745849455  0.9273481739593277  0.53643529388947  1.0000
  N   N2        1.0  0.31532214876759035  0.8277695199072939  0.13023903279441718  1.0000
  N   N3        1.0  0.2615193472594377  0.030084819164782672  0.4227556182604901  1.0000
  N   N4        1.0  0.5151114849665868  0.6090410100032537  0.9602373717973289  1.0000
  O   O1        1.0  0.1534053608456355  0.13971794326441225  0.5355080572916494  1.0000
  O   O2        1.0  0.9399399313065449  0.7617403236144715  0.06032064725141173  1.0000
  O   O3        1.0  0.027477871614655536  0.5504583182720948  0.4391960449759107  1.0000
  O   O4        1.0  0.8742130063818553  0.6053622913353407  0.8884484056617543  1.0000
  O   O5        1.0  0.31627324007360613  0.5589913451502742  0.6614213162960494  1.0000
  O   O6        1.0  0.23568147019928487  0.3842917343757444  0.796582121856561  1.0000
  O   O7        1.0  0.48486688784502996  0.16808236488688666  0.22550603883287318  1.0000
  O   O8        1.0  0.16083460317746168  0.7084886678105539  0.2655683809517556  1.0000
  O   O9        1.0  0.7235908577989673  0.6406018509212961  0.6648708324965084  1.0000
  O   O10       1.0  0.8030287458923708  0.42865794427920667  0.7769277828532392  1.0000
  O   O11       1.0  0.5942432679920756  0.867129338027447  0.3271151027758229  1.0000
  O   O12       1.0  0.9413170395917152  0.2730359235392281  0.20807870103182352  1.0000
data_image128
_chemical_formula_structural       Na4C8N4O12
_chemical_formula_sum              "Na4 C8 N4 O12"
_cell_length_a       5.423166
_cell_length_b       3.6248270000000002
_cell_length_c       20.275782753631116
_cell_angle_alpha    88.79220736031418
_cell_angle_beta     90.0
_cell_angle_gamma    90.0

_space_group_name_H-M_alt    "P 1"
_space_group_IT_number       1

loop_
  _space_group_symop_operation_xyz
  'x, y, z'

loop_
  _atom_site_type_symbol
  _atom_site_label
  _atom_site_symmetry_multiplicity
  _atom_site_fract_x
  _atom_site_fract_y
  _atom_site_fract_z
  _atom_site_occupancy
  Na  Na1       1.0  0.15414405981660972  0.15250713571077812  0.9634864304566152  1.0000
  Na  Na2       1.0  0.7661456816003593  0.5709685284785628  0.5860163629504447  1.0000
  Na  Na3       1.0  0.6735438326002061  0.32708529673545966  0.12420874178900747  1.0000
  Na  Na4       1.0  0.6013060320117524  0.786841309405752  0.44421947441339094  1.0000
  C   C1        1.0  0.3233470176055757  0.14274532618174393  0.5376426295338531  1.0000
  C   C2        1.0  0.13170140893950766  0.8802885848680642  0.10548661102033785  1.0000
  C   C3        1.0  0.09239195996918625  0.37641387449252384  0.3933379624881243  1.0000
  C   C4        1.0  0.6225272337006036  0.6641341011914981  0.94092478988801  1.0000
  C   C5        1.0  0.4389033480191581  0.6657486905144581  0.6809908691205209  1.0000
  C   C6        1.0  0.1530854272674218  0.2680952730369637  0.7778940842030427  1.0000
  C   C7        1.0  0.6346563167834413  0.8965581882338305  0.27228825668783585  1.0000
  C   C8        1.0  0.06928863445164324  0.40239411113256884  0.22501727655899484  1.0000
  N   N1        1.0  0.540848622476374  0.1627854269073485  0.526881018033962  1.0000
  N   N2        1.0  0.34979013850994833  0.8255517147793481  0.10286015903752399  1.0000
  N   N3        1.0  0.28425440767076915  0.5175871259297036  0.38036349874260905  1.0000
  N   N4        1.0  0.389637112050071  0.7314989274507879  0.9499614478423138  1.0000
  O   O1        1.0  0.13902106930821023  0.10796757384007954  0.5650888132889036  1.0000
  O   O2        1.0  0.9161821342622151  0.8632369374558537  0.09214103426098452  1.0000
  O   O3        1.0  0.9004457588405576  0.23791662319893692  0.41226710379524784  1.0000
  O   O4        1.0  0.8128022656166018  0.5495123314910519  0.9214770664328507  1.0000
  O   O5        1.0  0.22963107031460248  0.6143798226589121  0.690642316082713  1.0000
  O   O6        1.0  0.2758380589116083  0.4932621498261347  0.8083549793938792  1.0000
  O   O7        1.0  0.4981277874298368  0.02525626222219779  0.2313652905510259  1.0000
  O   O8        1.0  0.1704179901135059  0.6407176496306283  0.2498086600595977  1.0000
  O   O9        1.0  0.6359085533682196  0.7377302569138067  0.6884274996459153  1.0000
  O   O10       1.0  0.01577333174694351  0.06113599208882747  0.7555603526580674  1.0000
  O   O11       1.0  0.7467040584456176  0.7023878597013802  0.3036467153661278  1.0000
  O   O12       1.0  0.9892821600882712  0.14554833121372734  0.19866563905330756  1.0000
data_image129
_chemical_formula_structural       Na4C8N4O12
_chemical_formula_sum              "Na4 C8 N4 O12"
_cell_length_a       5.423166
_cell_length_b       3.6248270000000002
_cell_length_c       20.275782753631116
_cell_angle_alpha    88.79220736031418
_cell_angle_beta     90.0
_cell_angle_gamma    90.0

_space_group_name_H-M_alt    "P 1"
_space_group_IT_number       1

loop_
  _space_group_symop_operation_xyz
  'x, y, z'

loop_
  _atom_site_type_symbol
  _atom_site_label
  _atom_site_symmetry_multiplicity
  _atom_site_fract_x
  _atom_site_fract_y
  _atom_site_fract_z
  _atom_site_occupancy
  Na  Na1       1.0  0.008857777619628138  0.035396731151721594  0.9443725628397981  1.0000
  Na  Na2       1.0  0.9784218384771011  0.543367968750481  0.5799471885346523  1.0000
  Na  Na3       1.0  0.7126426057114054  0.24860299999820726  0.1046754194247228  1.0000
  Na  Na4       1.0  0.5722754370956954  0.7593700122156424  0.4316174964999764  1.0000
  C   C1        1.0  0.2738037705876649  0.12447587669642587  0.5232572057882117  1.0000
  C   C2        1.0  0.1921223297365514  0.8365064027977089  0.059057161710837525  1.0000
  C   C3        1.0  0.049294027922004435  0.37898187085318  0.38860017100081184  1.0000
  C   C4        1.0  0.5722645657704921  0.526655351216645  0.9431901557407125  1.0000
  C   C5        1.0  0.5414457663521004  0.6947334040430653  0.6935594409024055  1.0000
  C   C6        1.0  0.16232181447676242  0.388032821356171  0.8296074371034319  1.0000
  C   C7        1.0  0.5456290327466952  0.8477627968176533  0.29372502661718947  1.0000
  C   C8        1.0  0.042994654790291076  0.5179486939495024  0.23758000514735136  1.0000
  N   N1        1.0  0.4354433583574935  0.27821680125365267  0.5503137985257953  1.0000
  N   N2        1.0  0.41311488720230594  0.7549193747329723  0.07120485406708976  1.0000
  N   N3        1.0  0.1958583717410709  0.5907344008565885  0.4089683817556645  1.0000
  N   N4        1.0  0.3927239478750828  0.5007324693518118  0.973548983797308  1.0000
  O   O1        1.0  0.058358748125987736  0.01303693440956012  0.5151328432646787  1.0000
  O   O2        1.0  0.9706727067313208  0.8192132165763015  0.05261355463354844  1.0000
  O   O3        1.0  0.9046318537486505  0.18550803805716876  0.36050710282018517  1.0000
  O   O4        1.0  0.7667166976548692  0.5128223963572465  0.9097211585803953  1.0000
  O   O5        1.0  0.4341557333382492  0.9112806746582753  0.6572935597931943  1.0000
  O   O6        1.0  0.3039689233502716  0.6389240537373269  0.8425283272539371  1.0000
  O   O7        1.0  0.5129518392572372  0.11190887418377471  0.25533853197175227  1.0000
  O   O8        1.0  0.1566044913230884  0.6409431818903844  0.2839916470025329  1.0000
  O   O9        1.0  0.7406092981510137  0.592714196405381  0.7141323196160946  1.0000
  O   O10       1.0  0.017911153244051903  0.15172900728363858  0.820940915315729  1.0000
  O   O11       1.0  0.5991562096640488  0.6350252428436447  0.3337732933580439  1.0000
  O   O12       1.0  0.9300147411633587  0.40976815183809556  0.19004763270830577  1.0000
data_image130
_chemical_formula_structural       Na4C8N4O12
_chemical_formula_sum              "Na4 C8 N4 O12"
_cell_length_a       5.423166
_cell_length_b       3.6248270000000002
_cell_length_c       20.275782753631116
_cell_angle_alpha    88.79220736031418
_cell_angle_beta     90.0
_cell_angle_gamma    90.0

_space_group_name_H-M_alt    "P 1"
_space_group_IT_number       1

loop_
  _space_group_symop_operation_xyz
  'x, y, z'

loop_
  _atom_site_type_symbol
  _atom_site_label
  _atom_site_symmetry_multiplicity
  _atom_site_fract_x
  _atom_site_fract_y
  _atom_site_fract_z
  _atom_site_occupancy
  Na  Na1       1.0  0.8833029318505041  0.73335980076775  0.9216831444721129  1.0000
  Na  Na2       1.0  0.0020926456017432704  0.5494765858502009  0.6022779321595029  1.0000
  Na  Na3       1.0  0.6328898508056996  0.2950697879898607  0.06099795960990715  1.0000
  Na  Na4       1.0  0.5804178369400493  0.721036845801815  0.4451744490380902  1.0000
  C   C1        1.0  0.48517940853465  0.2552860418115518  0.5574777496133767  1.0000
  C   C2        1.0  0.21518594330571938  0.8287616980868906  0.08976051085995285  1.0000
  C   C3        1.0  0.027056236367207998  0.32571877329177856  0.4104450639253078  1.0000
  C   C4        1.0  0.438321756228752  0.09869883084561115  0.9231682690615489  1.0000
  C   C5        1.0  0.6168548018076208  0.840220882558735  0.6834499486844078  1.0000
  C   C6        1.0  0.18445217221398602  0.4352148997536085  0.8153275097018355  1.0000
  C   C7        1.0  0.557908384663095  0.11659012462910845  0.2705677588741858  1.0000
  C   C8        1.0  0.9745870776243636  0.6292860464659229  0.21728745517003156  1.0000
  N   N1        1.0  0.6388962384652863  0.4481644122843555  0.5343354721641363  1.0000
  N   N2        1.0  0.3957206919459485  0.8121165282872338  0.12398826843048671  1.0000
  N   N3        1.0  0.23481071645013474  0.4258955278611909  0.4059939170807409  1.0000
  N   N4        1.0  0.2758875543766448  0.870514770092869  0.9178436819472047  1.0000
  O   O1        1.0  0.29354781995722223  0.06913755498675281  0.5806083758548778  1.0000
  O   O2        1.0  0.029698291501610415  0.8383063760476277  0.05773523153983762  1.0000
  O   O3        1.0  0.8150771618672542  0.19966183294413842  0.4213312975583502  1.0000
  O   O4        1.0  0.6059511597206535  0.2679118259668556  0.9410330543634767  1.0000
  O   O5        1.0  0.4049286877127902  0.9879761208795725  0.6970309460285575  1.0000
  O   O6        1.0  0.3899015820148022  0.5396053659466751  0.8147888031783689  1.0000
  O   O7        1.0  0.5270302052958017  0.36011308895110383  0.22907339715009797  1.0000
  O   O8        1.0  0.08118690884941904  0.7670611211265075  0.26060572989259884  1.0000
  O   O9        1.0  0.798809894150343  0.6547564757475572  0.7033995146060812  1.0000
  O   O10       1.0  0.008623582131399132  0.25529599738186803  0.8117159032955223  1.0000
  O   O11       1.0  0.6246826528049793  0.9131350899134143  0.31382872038794585  1.0000
  O   O12       1.0  0.8821155573975527  0.5186679008731625  0.16870495048194667  1.0000
data_image131
_chemical_formula_structural       Na4C8N4O12
_chemical_formula_sum              "Na4 C8 N4 O12"
_cell_length_a       5.423166
_cell_length_b       3.6248270000000002
_cell_length_c       20.275782753631116
_cell_angle_alpha    88.79220736031418
_cell_angle_beta     90.0
_cell_angle_gamma    90.0

_space_group_name_H-M_alt    "P 1"
_space_group_IT_number       1

loop_
  _space_group_symop_operation_xyz
  'x, y, z'

loop_
  _atom_site_type_symbol
  _atom_site_label
  _atom_site_symmetry_multiplicity
  _atom_site_fract_x
  _atom_site_fract_y
  _atom_site_fract_z
  _atom_site_occupancy
  Na  Na1       1.0  0.9765498428483068  0.4117258823311547  0.9443584840919348  1.0000
  Na  Na2       1.0  0.9407337533399416  0.6440945957006596  0.6505664527596464  1.0000
  Na  Na3       1.0  0.7221819754775776  0.3137861269837179  0.0768880841789051  1.0000
  Na  Na4       1.0  0.5697020961557538  0.6412544690589335  0.41295119346855896  1.0000
  C   C1        1.0  0.2880110936799557  0.40331073882105345  0.5727538199022673  1.0000
  C   C2        1.0  0.230526200653012  0.7800625800885606  0.04235750219733503  1.0000
  C   C3        1.0  0.10270262512420314  0.2649926278071497  0.4033319823880557  1.0000
  C   C4        1.0  0.46828691113365095  0.06984148971155246  0.9343398275009064  1.0000
  C   C5        1.0  0.4988644491938068  0.9354106321843123  0.6898700622240649  1.0000
  C   C6        1.0  0.2722432128464094  0.3264025589533781  0.8163006880477446  1.0000
  C   C7        1.0  0.5774014716924907  0.19728079092934925  0.26013633472389003  1.0000
  C   C8        1.0  0.031196091523703506  0.6514233712394797  0.2002776800668789  1.0000
  N   N1        1.0  0.5099072899799456  0.4557192737630897  0.573559482185261  1.0000
  N   N2        1.0  0.4351655742074202  0.8245556463782193  0.040690159291521644  1.0000
  N   N3        1.0  0.31772725037769844  0.12010533815300195  0.4004672045006079  1.0000
  N   N4        1.0  0.2477117107393545  0.016731679426152724  0.9334921133851275  1.0000
  O   O1        1.0  0.0898637031661711  0.2911169886668216  0.5799098950523738  1.0000
  O   O2        1.0  0.0018595401026823579  0.7659439545795084  0.039855461882790655  1.0000
  O   O3        1.0  0.9101358665201822  0.41875065547673307  0.41436302558221555  1.0000
  O   O4        1.0  0.6872995512438224  0.06180238895078727  0.9544365762143586  1.0000
  O   O5        1.0  0.2902578976995208  0.8023272255319396  0.7056852039555082  1.0000
  O   O6        1.0  0.4898533817405739  0.2839723780555734  0.8275810674921628  1.0000
  O   O7        1.0  0.4524643005830083  0.3660117703350868  0.22711154384153626  1.0000
  O   O8        1.0  0.1008525321739775  0.8604201966704803  0.24086585659494217  1.0000
  O   O9        1.0  0.6404730516221105  0.18182357423293283  0.7226839232040112  1.0000
  O   O10       1.0  0.057158798411645506  0.39859472930314443  0.8173905571296219  1.0000
  O   O11       1.0  0.6644705376413839  0.9926055067250741  0.29553075170484755  1.0000
  O   O12       1.0  0.9733424120361951  0.4128122256220017  0.16127270676369768  1.0000
data_image132
_chemical_formula_structural       Na4C8N4O12
_chemical_formula_sum              "Na4 C8 N4 O12"
_cell_length_a       5.423166
_cell_length_b       3.6248270000000002
_cell_length_c       20.275782753631116
_cell_angle_alpha    88.79220736031418
_cell_angle_beta     90.0
_cell_angle_gamma    90.0

_space_group_name_H-M_alt    "P 1"
_space_group_IT_number       1

loop_
  _space_group_symop_operation_xyz
  'x, y, z'

loop_
  _atom_site_type_symbol
  _atom_site_label
  _atom_site_symmetry_multiplicity
  _atom_site_fract_x
  _atom_site_fract_y
  _atom_site_fract_z
  _atom_site_occupancy
  Na  Na1       1.0  0.964927851345059  0.48264030396883206  0.9252375404536118  1.0000
  Na  Na2       1.0  0.7728868066031751  0.7191968505875098  0.6351391192472875  1.0000
  Na  Na3       1.0  0.6756547224395502  0.13695883793824462  0.08875256661422659  1.0000
  Na  Na4       1.0  0.6770297991054389  0.6418819416362633  0.43177082243674264  1.0000
  C   C1        1.0  0.2597989385422741  0.6633141406912815  0.5599622419693951  1.0000
  C   C2        1.0  0.1951777749892415  0.5991714032543616  0.07209350407356574  1.0000
  C   C3        1.0  0.22426173022995455  0.1460485886584184  0.4126945760231461  1.0000
  C   C4        1.0  0.5409964068820943  0.8919401847697899  0.9368987568666738  1.0000
  C   C5        1.0  0.31136092932182646  0.9951851520219648  0.7000456052507434  1.0000
  C   C6        1.0  0.2895950281684563  0.5669306092456303  0.8178089998927831  1.0000
  C   C7        1.0  0.5629116052624435  0.13571693049885836  0.24946543154382791  1.0000
  C   C8        1.0  0.13215162053051088  0.5410916500723109  0.21067502328766158  1.0000
  N   N1        1.0  0.4726251910289334  0.6675123262912046  0.5679213448694453  1.0000
  N   N2        1.0  0.41536333850033125  0.5740980152448905  0.08948338370142617  1.0000
  N   N3        1.0  0.425367782207533  0.04443977376803554  0.4313240080861587  1.0000
  N   N4        1.0  0.33346036251947475  0.8891302543474517  0.9515653423388322  1.0000
  O   O1        1.0  0.03807242463648486  0.6696776946783234  0.5537653529896054  1.0000
  O   O2        1.0  0.9959696709703377  0.6651649864234614  0.05377417320668987  1.0000
  O   O3        1.0  0.017920257678285534  0.2786796550259514  0.4152378075403271  1.0000
  O   O4        1.0  0.7553074392164357  0.945837146899549  0.9255168907646655  1.0000
  O   O5        1.0  0.12467154346514847  0.915568584320871  0.6726401176525636  1.0000
  O   O6        1.0  0.4677122339555573  0.7488982595497236  0.7963367445379074  1.0000
  O   O7        1.0  0.5248999667642535  0.17986132285133982  0.19128743695708952  1.0000
  O   O8        1.0  0.2309021095256556  0.7431578275424854  0.2480390826581893  1.0000
  O   O9        1.0  0.4921612732623151  0.1691957144553209  0.7055321151686705  1.0000
  O   O10       1.0  0.09699269032617774  0.4511012262487497  0.8311018408356782  1.0000
  O   O11       1.0  0.6390453137338942  0.07153923123766637  0.30991009018195476  1.0000
  O   O12       1.0  0.9901517861221462  0.31956567815476  0.1778331921729194  1.0000
data_image133
_chemical_formula_structural       Na4C8N4O12
_chemical_formula_sum              "Na4 C8 N4 O12"
_cell_length_a       5.423166
_cell_length_b       3.6248270000000002
_cell_length_c       20.275782753631116
_cell_angle_alpha    88.79220736031418
_cell_angle_beta     90.0
_cell_angle_gamma    90.0

_space_group_name_H-M_alt    "P 1"
_space_group_IT_number       1

loop_
  _space_group_symop_operation_xyz
  'x, y, z'

loop_
  _atom_site_type_symbol
  _atom_site_label
  _atom_site_symmetry_multiplicity
  _atom_site_fract_x
  _atom_site_fract_y
  _atom_site_fract_z
  _atom_site_occupancy
  Na  Na1       1.0  0.003362038071143436  0.34064632227294434  0.9381266900418395  1.0000
  Na  Na2       1.0  0.8697504990089728  0.03173154177300108  0.6171547434563589  1.0000
  Na  Na3       1.0  0.6529498139144001  0.02803165120488712  0.08252550812500652  1.0000
  Na  Na4       1.0  0.8679708694777237  0.6530439176443519  0.4376783431122752  1.0000
  C   C1        1.0  0.35467783122635443  0.6151652569750813  0.5501005446040689  1.0000
  C   C2        1.0  0.12123319773211005  0.7116160345453324  0.09754279942274113  1.0000
  C   C3        1.0  0.1990919305388721  0.13871089223092858  0.3932013092976627  1.0000
  C   C4        1.0  0.4434119864186383  0.029945746962551922  0.9471386290718233  1.0000
  C   C5        1.0  0.34908521608959503  0.09319699010948224  0.6928780967298651  1.0000
  C   C6        1.0  0.20589432198634894  0.5171936786116882  0.8111318931828387  1.0000
  C   C7        1.0  0.6327081595043381  0.21009327310409742  0.27115364065840364  1.0000
  C   C8        1.0  0.06709595610402252  0.3270231853894441  0.21175857939141055  1.0000
  N   N1        1.0  0.5627812084181207  0.7690052616070421  0.5479349526604812  1.0000
  N   N2        1.0  0.30720644836691957  0.8758742028058211  0.10403356604669978  1.0000
  N   N3        1.0  0.41204650440636215  0.099189065236849  0.4009655231141024  1.0000
  N   N4        1.0  0.2554890911932983  0.8920579019673438  0.9420775227853361  1.0000
  O   O1        1.0  0.12303839071922795  0.597796239088058  0.5593655832304599  1.0000
  O   O2        1.0  0.9683203130732924  0.5260754792776077  0.06295658163256768  1.0000
  O   O3        1.0  0.9707273343354402  0.12797517388968593  0.3950881451265727  1.0000
  O   O4        1.0  0.6479771412867237  0.1524465491156186  0.9515365151523152  1.0000
  O   O5        1.0  0.1539388548208737  0.9559405393508047  0.6989341941293705  1.0000
  O   O6        1.0  0.4172663180620271  0.5040159282920524  0.8215568435197927  1.0000
  O   O7        1.0  0.5430790402629886  0.02887775139649429  0.22402906156909327  1.0000
  O   O8        1.0  0.12668902323194442  0.3640243133664383  0.2703404689306914  1.0000
  O   O9        1.0  0.5227080134382003  0.20922115353796533  0.6613071994585225  1.0000
  O   O10       1.0  0.9843233335556185  0.45328815176927884  0.8079467571599637  1.0000
  O   O11       1.0  0.7133879768865025  0.4864568715597678  0.30095105376587533  1.0000
  O   O12       1.0  0.9735886497896287  0.16486026212794802  0.1618831517850896  1.0000
data_image134
_chemical_formula_structural       Na4C8N4O12
_chemical_formula_sum              "Na4 C8 N4 O12"
_cell_length_a       5.423166
_cell_length_b       3.6248270000000002
_cell_length_c       20.275782753631116
_cell_angle_alpha    88.79220736031418
_cell_angle_beta     90.0
_cell_angle_gamma    90.0

_space_group_name_H-M_alt    "P 1"
_space_group_IT_number       1

loop_
  _space_group_symop_operation_xyz
  'x, y, z'

loop_
  _atom_site_type_symbol
  _atom_site_label
  _atom_site_symmetry_multiplicity
  _atom_site_fract_x
  _atom_site_fract_y
  _atom_site_fract_z
  _atom_site_occupancy
  Na  Na1       1.0  0.8609333650141833  0.5349669628342413  0.9472745133185474  1.0000
  Na  Na2       1.0  0.029842163831098834  0.03411792555001969  0.5654788879413961  1.0000
  Na  Na3       1.0  0.7866301439329273  0.2385823304116575  0.0706976538053239  1.0000
  Na  Na4       1.0  0.5387346598229772  0.5989500955633016  0.4492927154310395  1.0000
  C   C1        1.0  0.4710127876901641  0.5613378138268486  0.5607944311874675  1.0000
  C   C2        1.0  0.23373871439517313  0.7304060527533294  0.06901204825576368  1.0000
  C   C3        1.0  0.16327546333202148  0.040778325183750574  0.4069727454052545  1.0000
  C   C4        1.0  0.2689691681781672  0.12730617636123043  0.932526706058414  1.0000
  C   C5        1.0  0.33411049733711573  0.04456621203162481  0.6816455507748591  1.0000
  C   C6        1.0  0.1339057857947461  0.5418025965015159  0.8018575299623844  1.0000
  C   C7        1.0  0.701690304103169  0.2546210609079589  0.31853036000441415  1.0000
  C   C8        1.0  0.13068543955151513  0.17180479658678438  0.21668363080037273  1.0000
  N   N1        1.0  0.6736780292256073  0.4159393945819707  0.5681524245097449  1.0000
  N   N2        1.0  0.43127037378402877  0.712290874130419  0.0889877171917477  1.0000
  N   N3        1.0  0.37465021304783996  0.019292019897676704  0.399716890492997  1.0000
  N   N4        1.0  0.08106170583544436  0.06149605263417213  0.9014102386835814  1.0000
  O   O1        1.0  0.22988186415428224  0.578747859685591  0.5504271729143708  1.0000
  O   O2        1.0  0.02027983276442075  0.7242544772646751  0.04505373417465508  1.0000
  O   O3        1.0  0.9483093330692839  0.03438820497297823  0.42137740715001387  1.0000
  O   O4        1.0  0.4231847836392953  0.20641930412821763  0.9690643078311285  1.0000
  O   O5        1.0  0.14670457757240354  0.18351195251945907  0.6875108747391128  1.0000
  O   O6        1.0  0.33650729370806287  0.6336646264949675  0.7972084412151749  1.0000
  O   O7        1.0  0.6214369301992348  0.007614550248655538  0.2848594577126502  1.0000
  O   O8        1.0  0.31288399087150376  0.34921841340964754  0.22947439690573523  1.0000
  O   O9        1.0  0.5189972128430201  0.9353292231685955  0.7004218358030279  1.0000
  O   O10       1.0  0.9270115369622149  0.4454127685348739  0.8008346376929698  1.0000
  O   O11       1.0  0.8622972325326436  0.5115866166661075  0.3192489055535759  1.0000
  O   O12       1.0  0.9850417771173399  0.9551800789407872  0.19494422594628183  1.0000
data_image135
_chemical_formula_structural       Na4C8N4O12
_chemical_formula_sum              "Na4 C8 N4 O12"
_cell_length_a       5.423166
_cell_length_b       3.6248270000000002
_cell_length_c       20.275782753631116
_cell_angle_alpha    88.79220736031418
_cell_angle_beta     90.0
_cell_angle_gamma    90.0

_space_group_name_H-M_alt    "P 1"
_space_group_IT_number       1

loop_
  _space_group_symop_operation_xyz
  'x, y, z'

loop_
  _atom_site_type_symbol
  _atom_site_label
  _atom_site_symmetry_multiplicity
  _atom_site_fract_x
  _atom_site_fract_y
  _atom_site_fract_z
  _atom_site_occupancy
  Na  Na1       1.0  0.7436815675667265  0.9539141527040145  0.957297734464548  1.0000
  Na  Na2       1.0  0.9818119058308938  0.8241867124269466  0.57165237583538  1.0000
  Na  Na3       1.0  0.8019774608276413  0.26501424090922554  0.09438500477007508  1.0000
  Na  Na4       1.0  0.4165106861214379  0.38382462353466984  0.37801086255811145  1.0000
  C   C1        1.0  0.528771109710434  0.4591858069795848  0.5548599656611003  1.0000
  C   C2        1.0  0.2518486722825042  0.7033192304207772  0.06965280923421391  1.0000
  C   C3        1.0  0.9078296908461729  0.01702598635057906  0.456842787172895  1.0000
  C   C4        1.0  0.32343816484454546  0.14356741134770257  0.9191737818323303  1.0000
  C   C5        1.0  0.4405037748348318  0.08967513434621122  0.683603315193145  1.0000
  C   C6        1.0  0.895476500188569  0.5477112421974482  0.8189915307281229  1.0000
  C   C7        1.0  0.920869651687911  0.24360415725347417  0.30783625121113456  1.0000
  C   C8        1.0  0.2737802106300744  0.20176631596906147  0.1788271630568678  1.0000
  N   N1        1.0  0.738099804565123  0.3367328541927567  0.5825792145412529  1.0000
  N   N2        1.0  0.47781959154609177  0.6576969788002067  0.07275497535086095  1.0000
  N   N3        1.0  0.14344284391459694  0.06420827628879655  0.4543839560317041  1.0000
  N   N4        1.0  0.13863813003362435  0.9780628460086587  0.9365974800688415  1.0000
  O   O1        1.0  0.3253124447417587  0.5176680825578317  0.5334289887476178  1.0000
  O   O2        1.0  0.016910761969202957  0.7195528452500173  0.06109928968514389  1.0000
  O   O3        1.0  0.6780129261778032  0.9926486493592335  0.45985234943469305  1.0000
  O   O4        1.0  0.5292703802904541  0.25811649426933725  0.8960867092745796  1.0000
  O   O5        1.0  0.2900413985171212  0.3078380941548442  0.6618276027303971  1.0000
  O   O6        1.0  0.08933574892809792  0.4664772585596837  0.8404577247716188  1.0000
  O   O7        1.0  0.7667505524432022  0.05809185881266554  0.33172064114430533  1.0000
  O   O8        1.0  0.47720561376154724  0.3108462800082497  0.193015406911105  1.0000
  O   O9        1.0  0.6210001794435299  0.9176551288277808  0.6851180223950076  1.0000
  O   O10       1.0  0.7285559982706022  0.6817297754659108  0.7943320863446715  1.0000
  O   O11       1.0  0.0972866683186604  0.4434553610681886  0.32056088495398166  1.0000
  O   O12       1.0  0.08158879281677478  0.06624949821858994  0.1895958809344678  1.0000
data_image136
_chemical_formula_structural       Na4C8N4O12
_chemical_formula_sum              "Na4 C8 N4 O12"
_cell_length_a       5.423166
_cell_length_b       3.6248270000000002
_cell_length_c       20.275782753631116
_cell_angle_alpha    88.79220736031418
_cell_angle_beta     90.0
_cell_angle_gamma    90.0

_space_group_name_H-M_alt    "P 1"
_space_group_IT_number       1

loop_
  _space_group_symop_operation_xyz
  'x, y, z'

loop_
  _atom_site_type_symbol
  _atom_site_label
  _atom_site_symmetry_multiplicity
  _atom_site_fract_x
  _atom_site_fract_y
  _atom_site_fract_z
  _atom_site_occupancy
  Na  Na1       1.0  0.8218117530428133  0.022123469467794532  0.9912666091250751  1.0000
  Na  Na2       1.0  0.038296709652897  0.7462165137869375  0.5916875825341799  1.0000
  Na  Na3       1.0  0.7551060264627238  0.2931467070683521  0.10213790519903429  1.0000
  Na  Na4       1.0  0.43722189563190456  0.2869687225885662  0.3688719066910655  1.0000
  C   C1        1.0  0.47598304071833686  0.2813553846980223  0.5357910995004056  1.0000
  C   C2        1.0  0.26916570563973263  0.825120751673063  0.07850234665735556  1.0000
  C   C3        1.0  0.8537277625860532  0.9279746560621889  0.42409021324940965  1.0000
  C   C4        1.0  0.40594972161484844  0.17677002564178323  0.9357181249833069  1.0000
  C   C5        1.0  0.4472002195254286  0.14893521317197456  0.692034323291594  1.0000
  C   C6        1.0  0.8835041091027143  0.6343445206086045  0.8110294762709555  1.0000
  C   C7        1.0  0.8966128611801278  0.28300805239126237  0.3168194111037413  1.0000
  C   C8        1.0  0.30756929588664184  0.23491411405653562  0.19272482373431618  1.0000
  N   N1        1.0  0.6509246171132084  0.06464627455943686  0.55360618495558  1.0000
  N   N2        1.0  0.49343416446581245  0.8549307581454391  0.06634180444747084  1.0000
  N   N3        1.0  0.017400200990896453  0.10940263297498332  0.43064775960087925  1.0000
  N   N4        1.0  0.205567463690989  0.12148005514162863  0.9500356683170165  1.0000
  O   O1        1.0  0.3205561744310632  0.44754039143739294  0.5200959806728669  1.0000
  O   O2        1.0  0.02972151031202913  0.7817068839300738  0.07391789595478926  1.0000
  O   O3        1.0  0.6514142145341423  0.7876511302164371  0.40712145747172457  1.0000
  O   O4        1.0  0.6253637572194651  0.23923309821908578  0.922146165830561  1.0000
  O   O5        1.0  0.24242595064155154  0.23212404797116326  0.6694767565617412  1.0000
  O   O6        1.0  0.9930170337561903  0.3817926441188746  0.801459626900116  1.0000
  O   O7        1.0  0.7886669495637626  0.03036924138611019  0.30403387479350846  1.0000
  O   O8        1.0  0.5079877432080133  0.3466045013270222  0.20144870800126427  1.0000
  O   O9        1.0  0.5868494317192122  0.9374745632748673  0.7111033227510777  1.0000
  O   O10       1.0  0.723828710301945  0.8415504753158449  0.821778589220103  1.0000
  O   O11       1.0  0.09856895649358344  0.45780988422466073  0.32140136382225964  1.0000
  O   O12       1.0  0.09346932042003947  0.19430255054288503  0.18016889409980724  1.0000
data_image137
_chemical_formula_structural       Na4C8N4O12
_chemical_formula_sum              "Na4 C8 N4 O12"
_cell_length_a       5.423166
_cell_length_b       3.6248270000000002
_cell_length_c       20.275782753631116
_cell_angle_alpha    88.79220736031418
_cell_angle_beta     90.0
_cell_angle_gamma    90.0

_space_group_name_H-M_alt    "P 1"
_space_group_IT_number       1

loop_
  _space_group_symop_operation_xyz
  'x, y, z'

loop_
  _atom_site_type_symbol
  _atom_site_label
  _atom_site_symmetry_multiplicity
  _atom_site_fract_x
  _atom_site_fract_y
  _atom_site_fract_z
  _atom_site_occupancy
  Na  Na1       1.0  0.8274213914325863  0.9209421733462633  0.9653542789925391  1.0000
  Na  Na2       1.0  0.9122190706444042  0.793045956501422  0.5903533623872818  1.0000
  Na  Na3       1.0  0.8051070024321559  0.4009690184942775  0.11089786227752517  1.0000
  Na  Na4       1.0  0.3681572284477789  0.11338112937757305  0.4178095563311901  1.0000
  C   C1        1.0  0.45037457467291486  0.2669901143007502  0.5608116986495306  1.0000
  C   C2        1.0  0.3029834315631924  0.824488981921027  0.04207867450024794  1.0000
  C   C3        1.0  0.9056495231701087  0.4751330657838717  0.44114212727114505  1.0000
  C   C4        1.0  0.35596218497675225  0.45942734258981854  0.9267444847196045  1.0000
  C   C5        1.0  0.4058697995960002  0.04916927021344364  0.6840920176258972  1.0000
  C   C6        1.0  0.0702399780175007  0.663426370389951  0.8207554030790768  1.0000
  C   C7        1.0  0.9164295795666076  0.38706829409744004  0.3025360013905028  1.0000
  C   C8        1.0  0.2186401428952056  0.3329333989339991  0.1858010400716376  1.0000
  N   N1        1.0  0.6523252543650535  0.30186963322938615  0.5795410840204614  1.0000
  N   N2        1.0  0.5049917230238073  0.929371322551787  0.04090881991057693  1.0000
  N   N3        1.0  0.08120775868840524  0.6190486463321547  0.4154444904863248  1.0000
  N   N4        1.0  0.1524157764175591  0.3431824561963155  0.9233375030173449  1.0000
  O   O1        1.0  0.2265391134696888  0.3433723275826916  0.5373890506026345  1.0000
  O   O2        1.0  0.11717080739373333  0.6186141044101021  0.058276855140236616  1.0000
  O   O3        1.0  0.7063430943467848  0.3667198284860538  0.4545577083980898  1.0000
  O   O4        1.0  0.5618318994687636  0.5268399516923323  0.9307207432762701  1.0000
  O   O5        1.0  0.20090359268382732  0.06182703230669029  0.6719520333956285  1.0000
  O   O6        1.0  0.16386804392051246  0.49589935045594213  0.7765945260593787  1.0000
  O   O7        1.0  0.6930185303508242  0.3070062522492465  0.2964977790503275  1.0000
  O   O8        1.0  0.37305243778819386  0.5734188543054626  0.1836847180387916  1.0000
  O   O9        1.0  0.6053004653887004  0.12596078649662035  0.7104362709710319  1.0000
  O   O10       1.0  0.9375704926091126  0.7985095767654802  0.8595487828893511  1.0000
  O   O11       1.0  0.10402553564411665  0.5428865737583639  0.29141522581021284  1.0000
  O   O12       1.0  0.08488766003217517  0.09082107093707048  0.17318430497766585  1.0000
data_image138
_chemical_formula_structural       Na4C8N4O12
_chemical_formula_sum              "Na4 C8 N4 O12"
_cell_length_a       5.423166
_cell_length_b       3.6248270000000002
_cell_length_c       20.275782753631116
_cell_angle_alpha    88.79220736031418
_cell_angle_beta     90.0
_cell_angle_gamma    90.0

_space_group_name_H-M_alt    "P 1"
_space_group_IT_number       1

loop_
  _space_group_symop_operation_xyz
  'x, y, z'

loop_
  _atom_site_type_symbol
  _atom_site_label
  _atom_site_symmetry_multiplicity
  _atom_site_fract_x
  _atom_site_fract_y
  _atom_site_fract_z
  _atom_site_occupancy
  Na  Na1       1.0  0.9627200584105791  0.9590984560492073  0.9355023924529413  1.0000
  Na  Na2       1.0  0.8445477199164886  0.9861208733389718  0.6072432697666552  1.0000
  Na  Na3       1.0  0.7929762147057335  0.6021426439863802  0.07762794998767174  1.0000
  Na  Na4       1.0  0.42929460544340703  0.7981483670967657  0.476660972612598  1.0000
  C   C1        1.0  0.41845720735022573  0.4486238583120081  0.589817034481047  1.0000
  C   C2        1.0  0.30839745059636836  0.9689188366170052  0.043062345998956086  1.0000
  C   C3        1.0  0.9787638868928011  0.34849943264844674  0.4162450514066041  1.0000
  C   C4        1.0  0.5080059956260479  0.5040573877036354  0.9416102872473237  1.0000
  C   C5        1.0  0.27603721433138895  0.944471800996209  0.7144757446747603  1.0000
  C   C6        1.0  0.12710236298725697  0.6008095249188283  0.8124500239216591  1.0000
  C   C7        1.0  0.7830974345417278  0.4202025347237288  0.27939593955310105  1.0000
  C   C8        1.0  0.1414369146670993  0.19081995997708567  0.15022760044035152  1.0000
  N   N1        1.0  0.6372791089250904  0.39764533356854626  0.5809216852006512  1.0000
  N   N2        1.0  0.5010180267148516  0.13359668751635212  0.019878744180386487  1.0000
  N   N3        1.0  0.18575922163912995  0.2377132101167776  0.42252605547162864  1.0000
  N   N4        1.0  0.3010748118999731  0.5608118630829537  0.9331670289222285  1.0000
  O   O1        1.0  0.18768307177569554  0.493244310056407  0.5885883993688003  1.0000
  O   O2        1.0  0.12273055203889086  0.7710892838294909  0.05838877712177393  1.0000
  O   O3        1.0  0.7788378876163229  0.49634489562186257  0.412977013516798  1.0000
  O   O4        1.0  0.7254122044379765  0.44983605907439195  0.9367636696349918  1.0000
  O   O5        1.0  0.05909836458987044  0.9624080025777189  0.7010382509876867  1.0000
  O   O6        1.0  0.26788558185901223  0.3585524031393703  0.8002416187363735  1.0000
  O   O7        1.0  0.5891468649363211  0.32028621340065055  0.3047826110089139  1.0000
  O   O8        1.0  0.3391837924282328  0.2703304028681001  0.15581949971993214  1.0000
  O   O9        1.0  0.48033823646809165  0.8825342847202189  0.7289235883030362  1.0000
  O   O10       1.0  0.024251691132764375  0.8992809250967662  0.8214729466591586  1.0000
  O   O11       1.0  0.9709579101961655  0.557929839268767  0.2712096458944324  1.0000
  O   O12       1.0  0.9209198115360497  0.12700923015574594  0.16067070530277325  1.0000
data_image139
_chemical_formula_structural       Na4C8N4O12
_chemical_formula_sum              "Na4 C8 N4 O12"
_cell_length_a       5.423166
_cell_length_b       3.6248270000000002
_cell_length_c       20.275782753631116
_cell_angle_alpha    88.79220736031418
_cell_angle_beta     90.0
_cell_angle_gamma    90.0

_space_group_name_H-M_alt    "P 1"
_space_group_IT_number       1

loop_
  _space_group_symop_operation_xyz
  'x, y, z'

loop_
  _atom_site_type_symbol
  _atom_site_label
  _atom_site_symmetry_multiplicity
  _atom_site_fract_x
  _atom_site_fract_y
  _atom_site_fract_z
  _atom_site_occupancy
  Na  Na1       1.0  0.030671061477472894  0.05977704542369899  0.911541166669033  1.0000
  Na  Na2       1.0  0.8995354595917047  0.9418160669106537  0.6160219054653063  1.0000
  Na  Na3       1.0  0.7586180993694247  0.6286415151526736  0.07032358718339084  1.0000
  Na  Na4       1.0  0.4978517946571827  0.9514876941622794  0.41835745074952935  1.0000
  C   C1        1.0  0.3325018565804233  0.49316661804269163  0.5886498239118356  1.0000
  C   C2        1.0  0.3020969153097751  0.053565991088648346  0.046880021463633126  1.0000
  C   C3        1.0  0.032213872121521714  0.3614916712312608  0.4232761019870285  1.0000
  C   C4        1.0  0.5791699123004197  0.6231675416842095  0.9501186110502825  1.0000
  C   C5        1.0  0.32144061138690666  0.9498111116582633  0.7168721516250641  1.0000
  C   C6        1.0  0.07380001783856693  0.3711708632107307  0.8175190213542365  1.0000
  C   C7        1.0  0.7198056338409416  0.35033857136183877  0.28557320857060997  1.0000
  C   C8        1.0  0.11329483179533817  0.10717946925422783  0.174525102467273  1.0000
  N   N1        1.0  0.5142029165832067  0.6305653310049251  0.5615877249154682  1.0000
  N   N2        1.0  0.4811865874479161  0.21983475472337188  0.07183733375219425  1.0000
  N   N3        1.0  0.2012966080006302  0.19031086035762446  0.3980750961078747  1.0000
  N   N4        1.0  0.37201914164816485  0.7106105784896481  0.9230155901386357  1.0000
  O   O1        1.0  0.154195515638064  0.33265433277925566  0.616398041604183  1.0000
  O   O2        1.0  0.12437387172716438  0.9770725504653495  0.015737241650944034  1.0000
  O   O3        1.0  0.8630914390419101  0.496926509322714  0.4544889326573989  1.0000
  O   O4        1.0  0.8103224325009883  0.5502215805161703  0.9456954494689657  1.0000
  O   O5        1.0  0.10595938259857762  0.9249558579870452  0.7358714438291526  1.0000
  O   O6        1.0  0.29214034564247804  0.41095785576377875  0.8083448840043873  1.0000
  O   O7        1.0  0.5571852573112859  0.12588687339354043  0.2858536982552381  1.0000
  O   O8        1.0  0.2807966906330539  0.2633657761787329  0.19334510831106724  1.0000
  O   O9        1.0  0.5445705706383669  0.0011679424294483987  0.7072672987916602  1.0000
  O   O10       1.0  0.8627808693764174  0.27666641047600704  0.8138112391535005  1.0000
  O   O11       1.0  0.8353346522614121  0.6217406696986524  0.28212780900586504  1.0000
  O   O12       1.0  0.9092042209449409  0.9874670306907593  0.15763205621407148  1.0000
data_image140
_chemical_formula_structural       Na4C8N4O12
_chemical_formula_sum              "Na4 C8 N4 O12"
_cell_length_a       5.423166
_cell_length_b       3.6248270000000002
_cell_length_c       20.275782753631116
_cell_angle_alpha    88.79220736031418
_cell_angle_beta     90.0
_cell_angle_gamma    90.0

_space_group_name_H-M_alt    "P 1"
_space_group_IT_number       1

loop_
  _space_group_symop_operation_xyz
  'x, y, z'

loop_
  _atom_site_type_symbol
  _atom_site_label
  _atom_site_symmetry_multiplicity
  _atom_site_fract_x
  _atom_site_fract_y
  _atom_site_fract_z
  _atom_site_occupancy
  Na  Na1       1.0  0.9620628711658188  0.01383067476326949  0.920523863849395  1.0000
  Na  Na2       1.0  0.9492825170358761  0.9012012741719119  0.5939872490734084  1.0000
  Na  Na3       1.0  0.7863123187545838  0.8176158572391614  0.069475987761462  1.0000
  Na  Na4       1.0  0.5247001577170051  0.9391710077686501  0.4457971440334245  1.0000
  C   C1        1.0  0.3308074188954341  0.2949144826497793  0.5579951227601757  1.0000
  C   C2        1.0  0.3669754368454111  0.23637171565220783  0.0557766767037986  1.0000
  C   C3        1.0  0.004529648535381403  0.5658621365643715  0.42812392272168864  1.0000
  C   C4        1.0  0.5248809959716492  0.4711851685613775  0.9170770099185933  1.0000
  C   C5        1.0  0.539068207673959  0.7778875262333977  0.7204965213563378  1.0000
  C   C6        1.0  0.8948703225998762  0.2946710603047409  0.7883590173046487  1.0000
  C   C7        1.0  0.6426326416065923  0.3578518116467312  0.3141672824795541  1.0000
  C   C8        1.0  0.14823412821436  0.26567391606422186  0.2008891414500227  1.0000
  N   N1        1.0  0.5316093694991  0.3331776601894812  0.5781801351843765  1.0000
  N   N2        1.0  0.472543512901314  0.4723592159687695  0.0859899315299697  1.0000
  N   N3        1.0  0.23019038827873728  0.5905574028937033  0.41985458987940105  1.0000
  N   N4        1.0  0.30687466120016116  0.46059829872994396  0.9088175317321812  1.0000
  O   O1        1.0  0.11779392072032091  0.3513830339032437  0.5430448580657685  1.0000
  O   O2        1.0  0.2659391285653177  0.9665435801312945  0.015929824214671928  1.0000
  O   O3        1.0  0.800935893850788  0.39291205155939  0.43046296666808886  1.0000
  O   O4        1.0  0.6790005732214217  0.5544899932922163  0.9570600968323167  1.0000
  O   O5        1.0  0.3734959271291814  0.995057655461786  0.7185804531930186  1.0000
  O   O6        1.0  0.07713052961257727  0.48524168121335975  0.7720253394655489  1.0000
  O   O7        1.0  0.5225526415178566  0.10498219910705997  0.3355485868527731  1.0000
  O   O8        1.0  0.2619053418024293  0.5441640414029763  0.21765992772655632  1.0000
  O   O9        1.0  0.7115468231290698  0.5763070242827091  0.7009068811665831  1.0000
  O   O10       1.0  0.7262488468037844  0.13165640186448524  0.811604976506048  1.0000
  O   O11       1.0  0.7886938007406653  0.5922314736663504  0.3075565409013228  1.0000
  O   O12       1.0  0.0071489160393577835  0.08467294820253568  0.168237121249518  1.0000
data_image141
_chemical_formula_structural       Na4C8N4O12
_chemical_formula_sum              "Na4 C8 N4 O12"
_cell_length_a       5.423166
_cell_length_b       3.6248270000000002
_cell_length_c       20.275782753631116
_cell_angle_alpha    88.79220736031418
_cell_angle_beta     90.0
_cell_angle_gamma    90.0

_space_group_name_H-M_alt    "P 1"
_space_group_IT_number       1

loop_
  _space_group_symop_operation_xyz
  'x, y, z'

loop_
  _atom_site_type_symbol
  _atom_site_label
  _atom_site_symmetry_multiplicity
  _atom_site_fract_x
  _atom_site_fract_y
  _atom_site_fract_z
  _atom_site_occupancy
  Na  Na1       1.0  0.9622981426545618  0.0056240341349068634  0.9297170819817172  1.0000
  Na  Na2       1.0  0.889396273406899  0.5867821392161141  0.5607265974978906  1.0000
  Na  Na3       1.0  0.8214377792367588  0.5432972886499462  0.06581202609170173  1.0000
  Na  Na4       1.0  0.5353755456272582  0.9821170609659524  0.44889899818037055  1.0000
  C   C1        1.0  0.4452354817101071  0.24471505692977996  0.5659102125690596  1.0000
  C   C2        1.0  0.42098034418461483  0.9557919071789127  0.057687809816617586  1.0000
  C   C3        1.0  0.016054023147325402  0.7017227370615622  0.4509022230799902  1.0000
  C   C4        1.0  0.44865755107776883  0.49262002954831985  0.9318356552269709  1.0000
  C   C5        1.0  0.4993011014998371  0.913022150032812  0.7077208921507221  1.0000
  C   C6        1.0  0.8457500359176005  0.43718143091450434  0.7821921067444135  1.0000
  C   C7        1.0  0.5764769663604263  0.32439254675073614  0.30947046317427546  1.0000
  C   C8        1.0  0.2138889393913408  0.5784291024804131  0.18108262689924623  1.0000
  N   N1        1.0  0.6431354400427944  0.13744815111699102  0.5576196467419939  1.0000
  N   N2        1.0  0.6053518219923582  0.10299970944610637  0.07702474680518923  1.0000
  N   N3        1.0  0.21805128595029788  0.8112404061089413  0.43188964181504935  1.0000
  N   N4        1.0  0.2802503602237527  0.38985446449808503  0.8984534852833065  1.0000
  O   O1        1.0  0.22434868105498662  0.2677103333289503  0.5821521199911015  1.0000
  O   O2        1.0  0.19373668555780024  0.9353583430318857  0.037652725220041816  1.0000
  O   O3        1.0  0.8172375153328675  0.523485587879339  0.4527561783609112  1.0000
  O   O4        1.0  0.6258148968959659  0.5733130024683284  0.9636403018631453  1.0000
  O   O5        1.0  0.3624442364732631  0.980487492461394  0.7515752033192671  1.0000
  O   O6        1.0  0.9114321603598539  0.40796724697684716  0.7240398742571156  1.0000
  O   O7        1.0  0.434892472416539  0.30183738731945  0.3545313609272664  1.0000
  O   O8        1.0  0.335384509466508  0.4436722422818966  0.22606550704241923  1.0000
  O   O9        1.0  0.6282292207140517  0.7483751261463822  0.6767585447234689  1.0000
  O   O10       1.0  0.8272196745305993  0.4657230828048813  0.8424458933123762  1.0000
  O   O11       1.0  0.7680381967536902  0.3409466764472946  0.2727042951910471  1.0000
  O   O12       1.0  0.03398450416894294  0.6589052886935776  0.15180702170693497  1.0000
data_image142
_chemical_formula_structural       Na4C8N4O12
_chemical_formula_sum              "Na4 C8 N4 O12"
_cell_length_a       5.423166
_cell_length_b       3.6248270000000002
_cell_length_c       20.275782753631116
_cell_angle_alpha    88.79220736031418
_cell_angle_beta     90.0
_cell_angle_gamma    90.0

_space_group_name_H-M_alt    "P 1"
_space_group_IT_number       1

loop_
  _space_group_symop_operation_xyz
  'x, y, z'

loop_
  _atom_site_type_symbol
  _atom_site_label
  _atom_site_symmetry_multiplicity
  _atom_site_fract_x
  _atom_site_fract_y
  _atom_site_fract_z
  _atom_site_occupancy
  Na  Na1       1.0  0.9248087748821827  0.8848695851209631  0.9363522818162894  1.0000
  Na  Na2       1.0  0.8140877709043886  0.6848946048613611  0.5878065926597079  1.0000
  Na  Na3       1.0  0.8291908994147427  0.3913618232346614  0.07304090119971435  1.0000
  Na  Na4       1.0  0.5895736410980812  0.13375700918012434  0.44684546235550754  1.0000
  C   C1        1.0  0.3461866341637203  0.12121267509186737  0.5670993668924753  1.0000
  C   C2        1.0  0.28617159238687173  0.9241011001833344  0.061731738958956894  1.0000
  C   C3        1.0  0.13052605353578572  0.6623622214982228  0.4402510307228826  1.0000
  C   C4        1.0  0.46078938710600936  0.3147380685786869  0.9397321207323621  1.0000
  C   C5        1.0  0.4789318656577724  0.9593158793487626  0.7249911404042837  1.0000
  C   C6        1.0  0.9612489726194029  0.5647687836911193  0.7408572470213398  1.0000
  C   C7        1.0  0.6260295848757241  0.3770644093502793  0.3083622474798097  1.0000
  C   C8        1.0  0.20711263946987124  0.6763466272675593  0.20197431294443582  1.0000
  N   N1        1.0  0.5604114454197825  0.21345645898477952  0.5690356614245821  1.0000
  N   N2        1.0  0.5030891731751641  0.9853798108251586  0.06805872162532167  1.0000
  N   N3        1.0  0.3260982503131107  0.577112970493606  0.46484999174115677  1.0000
  N   N4        1.0  0.23841294331084972  0.34936487504467895  0.9306924245628772  1.0000
  O   O1        1.0  0.14713409705350056  0.016804035527471655  0.5927846431828292  1.0000
  O   O2        1.0  0.0603651752294782  0.9428178404905463  0.05135571749581236  1.0000
  O   O3        1.0  0.9253257911910397  0.6521582970940534  0.4097325241080213  1.0000
  O   O4        1.0  0.6797229467117716  0.3153797631222002  0.9270544110871767  1.0000
  O   O5        1.0  0.39115287625143036  0.20864938188457938  0.7499028979580025  1.0000
  O   O6        1.0  0.9448792817737872  0.34254604555834023  0.69640241778382  1.0000
  O   O7        1.0  0.4604016843744114  0.5329451896834828  0.3294663672665424  1.0000
  O   O8        1.0  0.3550849885795162  0.4695959560565829  0.17361671814186821  1.0000
  O   O9        1.0  0.5335627542231093  0.7521090364831133  0.6866764082546373  1.0000
  O   O10       1.0  0.9869315796078064  0.7551298549522343  0.7876195150954535  1.0000
  O   O11       1.0  0.7970792921296357  0.19491364075990047  0.29022242203085163  1.0000
  O   O12       1.0  0.03578870537162933  0.8096757138235202  0.2273873338695268  1.0000
data_image143
_chemical_formula_structural       Na4C8N4O12
_chemical_formula_sum              "Na4 C8 N4 O12"
_cell_length_a       5.423166
_cell_length_b       3.6248270000000002
_cell_length_c       20.275782753631116
_cell_angle_alpha    88.79220736031418
_cell_angle_beta     90.0
_cell_angle_gamma    90.0

_space_group_name_H-M_alt    "P 1"
_space_group_IT_number       1

loop_
  _space_group_symop_operation_xyz
  'x, y, z'

loop_
  _atom_site_type_symbol
  _atom_site_label
  _atom_site_symmetry_multiplicity
  _atom_site_fract_x
  _atom_site_fract_y
  _atom_site_fract_z
  _atom_site_occupancy
  Na  Na1       1.0  0.0468205898129308  0.6578869605728972  0.9272248476260381  1.0000
  Na  Na2       1.0  0.8239732528566872  0.7453110967968956  0.6046011674307606  1.0000
  Na  Na3       1.0  0.7743634060239525  0.6395434109884106  0.11670360203955624  1.0000
  Na  Na4       1.0  0.6680742618595455  0.11677891927717932  0.4374594883197225  1.0000
  C   C1        1.0  0.3500751071812944  0.26222129305613656  0.5907789711030662  1.0000
  C   C2        1.0  0.302990346492633  0.05068465106248343  0.062331438431097785  1.0000
  C   C3        1.0  0.1337194055000901  0.47729494535658823  0.4132134095038999  1.0000
  C   C4        1.0  0.4538496863917867  0.31790854753057163  0.9163114232667045  1.0000
  C   C5        1.0  0.46843440520326246  0.8577128521885771  0.760342119838948  1.0000
  C   C6        1.0  0.9584579188274303  0.38934268681844375  0.7615891998074463  1.0000
  C   C7        1.0  0.5589635256874493  0.4502352130124452  0.29031853124462154  1.0000
  C   C8        1.0  0.2048571055887567  0.6237262361573248  0.18528375405182343  1.0000
  N   N1        1.0  0.5597749706548604  0.26787000234567565  0.5618226988222902  1.0000
  N   N2        1.0  0.5176251251837658  0.026366359196069666  0.04857834851197551  1.0000
  N   N3        1.0  0.3416988340470595  0.5519667334093339  0.41895775796153545  1.0000
  N   N4        1.0  0.2586041011098563  0.17474741054524578  0.9230966269476194  1.0000
  O   O1        1.0  0.1211456351307788  0.2730498451108646  0.608171661129373  1.0000
  O   O2        1.0  0.08382653817517055  0.13227521524610397  0.07101024187364047  1.0000
  O   O3        1.0  0.9116794851873213  0.5077612325068204  0.39215914531301616  1.0000
  O   O4        1.0  0.6553209512744002  0.44499816811535897  0.9052891377370742  1.0000
  O   O5        1.0  0.5106327599668382  0.005936308720499106  0.8101722208802298  1.0000
  O   O6        1.0  0.8424497473000685  0.30012592515432734  0.7132698003696719  1.0000
  O   O7        1.0  0.4222308802007994  0.7057638976725251  0.2897799997176623  1.0000
  O   O8        1.0  0.39464054412742366  0.5755943828195216  0.15897005860908325  1.0000
  O   O9        1.0  0.4059815184197244  0.7290599977657806  0.7071210500217361  1.0000
  O   O10       1.0  0.06812141969908403  0.45262412809129104  0.8090331922117452  1.0000
  O   O11       1.0  0.6746316991817266  0.23695938596326283  0.2648714777479429  1.0000
  O   O12       1.0  0.00867978523901682  0.7524151856791388  0.2059063194310893  1.0000
data_image144
_chemical_formula_structural       Na4C8N4O12
_chemical_formula_sum              "Na4 C8 N4 O12"
_cell_length_a       5.423166
_cell_length_b       3.6248270000000002
_cell_length_c       20.275782753631116
_cell_angle_alpha    88.79220736031418
_cell_angle_beta     90.0
_cell_angle_gamma    90.0

_space_group_name_H-M_alt    "P 1"
_space_group_IT_number       1

loop_
  _space_group_symop_operation_xyz
  'x, y, z'

loop_
  _atom_site_type_symbol
  _atom_site_label
  _atom_site_symmetry_multiplicity
  _atom_site_fract_x
  _atom_site_fract_y
  _atom_site_fract_z
  _atom_site_occupancy
  Na  Na1       1.0  0.025907710783997895  0.7272859682389781  0.9149947704155222  1.0000
  Na  Na2       1.0  0.7840825244983036  0.7929032140677993  0.6001782077227157  1.0000
  Na  Na3       1.0  0.8025054258394865  0.8754645952045589  0.05003223538293134  1.0000
  Na  Na4       1.0  0.6103901587380041  0.0027875300898885236  0.45370167945600265  1.0000
  C   C1        1.0  0.2890558870692077  0.17687696235060657  0.5788027000449596  1.0000
  C   C2        1.0  0.27152992783250807  0.2906326332950111  0.057519241259237575  1.0000
  C   C3        1.0  0.07952258465920359  0.49542948978678725  0.44687209776759196  1.0000
  C   C4        1.0  0.5775568574263397  0.20195131718345127  0.9302192052428295  1.0000
  C   C5        1.0  0.4824271538109005  0.8327623106706752  0.7569830441169545  1.0000
  C   C6        1.0  0.955194481712913  0.32285627130849925  0.7680454111102876  1.0000
  C   C7        1.0  0.5671617304240331  0.3422998835362083  0.2812833915455214  1.0000
  C   C8        1.0  0.25272997909323847  0.7113939006100964  0.17503537547436582  1.0000
  N   N1        1.0  0.47178334226789775  0.04112004898059615  0.5578704924509817  1.0000
  N   N2        1.0  0.4891415090731337  0.3017857827187509  0.060417388244230485  1.0000
  N   N3        1.0  0.29156381109818597  0.6090598149361459  0.44754045395671355  1.0000
  N   N4        1.0  0.3734450672032452  0.10347254843849907  0.9137834244018708  1.0000
  O   O1        1.0  0.07253517127440678  0.33307635324367274  0.5800562900022216  1.0000
  O   O2        1.0  0.054258267173491824  0.3252217777801616  0.03747087585635023  1.0000
  O   O3        1.0  0.879309708307582  0.3764657537481475  0.4421402118077986  1.0000
  O   O4        1.0  0.7696722128275069  0.3368542161150856  0.9458498651591374  1.0000
  O   O5        1.0  0.6040374147206551  0.9175598574457218  0.8026786819690352  1.0000
  O   O6        1.0  0.8496829509861035  0.3916012467209158  0.7181445611879753  1.0000
  O   O7        1.0  0.3446437702768528  0.3610095141158287  0.2790030024582221  1.0000
  O   O8        1.0  0.47219930932367693  0.7792012034979086  0.17144205507267682  1.0000
  O   O9        1.0  0.3687286597815567  0.6159507957026729  0.728659747018924  1.0000
  O   O10       1.0  0.0012863717966236088  0.3307037078760173  0.82325997351256  1.0000
  O   O11       1.0  0.775827394578007  0.330128367956701  0.28359293252945333  1.0000
  O   O12       1.0  0.05014481706100529  0.685422481071043  0.18589990922508878  1.0000
data_image145
_chemical_formula_structural       Na4C8N4O12
_chemical_formula_sum              "Na4 C8 N4 O12"
_cell_length_a       5.423166
_cell_length_b       3.6248270000000002
_cell_length_c       20.275782753631116
_cell_angle_alpha    88.79220736031418
_cell_angle_beta     90.0
_cell_angle_gamma    90.0

_space_group_name_H-M_alt    "P 1"
_space_group_IT_number       1

loop_
  _space_group_symop_operation_xyz
  'x, y, z'

loop_
  _atom_site_type_symbol
  _atom_site_label
  _atom_site_symmetry_multiplicity
  _atom_site_fract_x
  _atom_site_fract_y
  _atom_site_fract_z
  _atom_site_occupancy
  Na  Na1       1.0  0.20412398240374885  0.7072770020940444  0.9007622088735117  1.0000
  Na  Na2       1.0  0.8513811577288044  0.5395342059909549  0.6034661895053591  1.0000
  Na  Na3       1.0  0.8129516313989495  0.7047114679581451  0.05385722442668583  1.0000
  Na  Na4       1.0  0.5802595941856179  0.8226503385305821  0.4432249395148313  1.0000
  C   C1        1.0  0.35890149387783665  0.0453008642049  0.5918831847213314  1.0000
  C   C2        1.0  0.3761446132799122  0.4778809699523858  0.0318520878452917  1.0000
  C   C3        1.0  0.062823412953674  0.30256951335238824  0.4526610033166744  1.0000
  C   C4        1.0  0.5831270125660755  0.34520090588440766  0.9197371557233213  1.0000
  C   C5        1.0  0.41558528976532444  0.9354402537124749  0.7595362569512463  1.0000
  C   C6        1.0  0.914320004483409  0.3764699285121187  0.7615542016352242  1.0000
  C   C7        1.0  0.37927450862785  0.32937818458821366  0.31024834420596115  1.0000
  C   C8        1.0  0.23447682211533127  0.9272515385753404  0.16844170897809044  1.0000
  N   N1        1.0  0.5216787162098708  0.8607197118758498  0.5693952589406173  1.0000
  N   N2        1.0  0.5215885839703689  0.31262068442321667  0.06625707865035269  1.0000
  N   N3        1.0  0.27952219158689595  0.3016789615583204  0.4359612054689034  1.0000
  N   N4        1.0  0.40689745613666983  0.17613791936780077  0.9239585472702811  1.0000
  O   O1        1.0  0.18365527408445603  0.2121306915406887  0.6178577486083361  1.0000
  O   O2        1.0  0.19642106835246165  0.5445575317192524  0.003735173764058519  1.0000
  O   O3        1.0  0.8563283124955225  0.33937928339238965  0.4679219464298463  1.0000
  O   O4        1.0  0.7693840530855683  0.5403899994617456  0.9298680272760841  1.0000
  O   O5        1.0  0.5858621466401127  0.03952974768283335  0.7925359728286134  1.0000
  O   O6        1.0  0.7966444552394545  0.5045952953240356  0.7168829269529925  1.0000
  O   O7        1.0  0.1806588808842116  0.3656316497087374  0.292125093239005  1.0000
  O   O8        1.0  0.4245439271798026  0.8043559602136822  0.1831583116979917  1.0000
  O   O9        1.0  0.2791031850040599  0.8577565631144219  0.7179206243699425  1.0000
  O   O10       1.0  0.05030247586476255  0.28540396440702653  0.8041680034266074  1.0000
  O   O11       1.0  0.5903706501773007  0.3033958843159664  0.32833768646453937  1.0000
  O   O12       1.0  0.026923037042607595  0.9616263800128302  0.15404902475085497  1.0000
data_image146
_chemical_formula_structural       Na4C8N4O12
_chemical_formula_sum              "Na4 C8 N4 O12"
_cell_length_a       5.423166
_cell_length_b       3.6248270000000002
_cell_length_c       20.275782753631116
_cell_angle_alpha    88.79220736031418
_cell_angle_beta     90.0
_cell_angle_gamma    90.0

_space_group_name_H-M_alt    "P 1"
_space_group_IT_number       1

loop_
  _space_group_symop_operation_xyz
  'x, y, z'

loop_
  _atom_site_type_symbol
  _atom_site_label
  _atom_site_symmetry_multiplicity
  _atom_site_fract_x
  _atom_site_fract_y
  _atom_site_fract_z
  _atom_site_occupancy
  Na  Na1       1.0  0.18132473774894386  0.7669307395531593  0.8862354801542526  1.0000
  Na  Na2       1.0  0.9224411707594593  0.323257730710877  0.6089153023727628  1.0000
  Na  Na3       1.0  0.8479425683457062  0.5966348491037463  0.10164770666624759  1.0000
  Na  Na4       1.0  0.6611603519151592  0.941254679857825  0.45076493873047224  1.0000
  C   C1        1.0  0.5084752102884273  0.09310430239999179  0.5757854891773746  1.0000
  C   C2        1.0  0.42569698766331054  0.44358435410479524  0.04629328007167466  1.0000
  C   C3        1.0  0.10287503483423666  0.21517316992990443  0.4493751640585031  1.0000
  C   C4        1.0  0.5793389769852477  0.4908294250053724  0.9222128544202995  1.0000
  C   C5        1.0  0.2858183115063947  0.7762808100532499  0.7350096988636066  1.0000
  C   C6        1.0  0.8066399868522971  0.47005193132566947  0.7497624290198412  1.0000
  C   C7        1.0  0.32282355761652637  0.3912195774816366  0.3195429362067851  1.0000
  C   C8        1.0  0.22196827409441955  0.9315932734424219  0.16873089874847627  1.0000
  N   N1        1.0  0.6934562013056089  0.8824393263415604  0.5714190850151618  1.0000
  N   N2        1.0  0.5816944218788622  0.2274375406355582  0.0621820589114388  1.0000
  N   N3        1.0  0.246238384140816  0.9834512986620996  0.4435849188786579  1.0000
  N   N4        1.0  0.3675414988482044  0.31912186997226666  0.9275210134976309  1.0000
  O   O1        1.0  0.3185549146798301  0.2277416385548394  0.5877674815919918  1.0000
  O   O2        1.0  0.24282859341694865  0.6354097518747044  0.04292027270410048  1.0000
  O   O3        1.0  0.9472000851520636  0.427465723437908  0.45918845028464056  1.0000
  O   O4        1.0  0.7568525203551303  0.6405400854397363  0.9420761390190785  1.0000
  O   O5        1.0  0.3595762493651659  0.954883967871438  0.7758351166193793  1.0000
  O   O6        1.0  0.7505659209966495  0.6123853282226035  0.6996449629686188  1.0000
  O   O7        1.0  0.15269041555502277  0.5411734595271513  0.31050820537296214  1.0000
  O   O8        1.0  0.35893941177329847  0.6864717050357002  0.18160464847195834  1.0000
  O   O9        1.0  0.25597719978579775  0.6377863813844595  0.6832669184074406  1.0000
  O   O10       1.0  0.8792830916989294  0.3343818946590871  0.8021510895985401  1.0000
  O   O11       1.0  0.5320534429573135  0.2655073401896447  0.3166247926163157  1.0000
  O   O12       1.0  0.0661188909102933  0.1586195028178503  0.15447464902880606  1.0000
data_image147
_chemical_formula_structural       Na4C8N4O12
_chemical_formula_sum              "Na4 C8 N4 O12"
_cell_length_a       5.423166
_cell_length_b       3.6248270000000002
_cell_length_c       20.275782753631116
_cell_angle_alpha    88.79220736031418
_cell_angle_beta     90.0
_cell_angle_gamma    90.0

_space_group_name_H-M_alt    "P 1"
_space_group_IT_number       1

loop_
  _space_group_symop_operation_xyz
  'x, y, z'

loop_
  _atom_site_type_symbol
  _atom_site_label
  _atom_site_symmetry_multiplicity
  _atom_site_fract_x
  _atom_site_fract_y
  _atom_site_fract_z
  _atom_site_occupancy
  Na  Na1       1.0  0.08196154749345574  0.7765958352773461  0.8732353088766537  1.0000
  Na  Na2       1.0  0.021066361844962467  0.6370028593704168  0.6067235536231017  1.0000
  Na  Na3       1.0  0.8439572201600398  0.6708744950664479  0.07567182428435894  1.0000
  Na  Na4       1.0  0.6890266741990946  0.7073447203230594  0.48556389236844405  1.0000
  C   C1        1.0  0.5198954637877706  0.15213485060569965  0.5788746014002654  1.0000
  C   C2        1.0  0.3946347154661043  0.2919947271185763  0.0651200656211195  1.0000
  C   C3        1.0  0.17736647738596512  0.2833512821083479  0.4384106997201587  1.0000
  C   C4        1.0  0.5502006555502026  0.4800592392336771  0.8953104277757217  1.0000
  C   C5        1.0  0.2742518743635685  0.8594720716165143  0.7308961600473661  1.0000
  C   C6        1.0  0.778930733542897  0.48915637610078466  0.7577098068001578  1.0000
  C   C7        1.0  0.41062052114611863  0.3795645556941495  0.3076340549108308  1.0000
  C   C8        1.0  0.23315103777355373  0.8564125401295055  0.19432331420499085  1.0000
  N   N1        1.0  0.7198154657740312  0.17865732719393995  0.5988768703116153  1.0000
  N   N2        1.0  0.5572527673298708  0.2015347392748419  0.10442914715131213  1.0000
  N   N3        1.0  0.3857238694650258  0.2255936283143649  0.42591946162408945  1.0000
  N   N4        1.0  0.3498430131180179  0.3371081881482545  0.8896206496744153  1.0000
  O   O1        1.0  0.30040583529502696  0.14524455044255896  0.5743231170130024  1.0000
  O   O2        1.0  0.19812513973905296  0.4541974909219766  0.031777120917118484  1.0000
  O   O3        1.0  0.9596843217208594  0.30747017946636745  0.4544626764463584  1.0000
  O   O4        1.0  0.7434764152770543  0.6614160087963623  0.8977196879070547  1.0000
  O   O5        1.0  0.2600334875662489  0.8732180822820248  0.7890225649919262  1.0000
  O   O6        1.0  0.7096518185633409  0.7151600132575204  0.7166656534946363  1.0000
  O   O7        1.0  0.18391629684799182  0.4388078654855433  0.30555538565687257  1.0000
  O   O8        1.0  0.4468557845900549  0.8001341044239103  0.21489608937297813  1.0000
  O   O9        1.0  0.2378378716072123  0.6700972316764742  0.6840001135660361  1.0000
  O   O10       1.0  0.7301297488226415  0.20594299322019527  0.7934762574515476  1.0000
  O   O11       1.0  0.5983922050212929  0.2834140544221403  0.3222317755943232  1.0000
  O   O12       1.0  0.044511700339339  0.8839512640357075  0.16727645010131076  1.0000
data_image148
_chemical_formula_structural       Na4C8N4O12
_chemical_formula_sum              "Na4 C8 N4 O12"
_cell_length_a       5.423166
_cell_length_b       3.6248270000000002
_cell_length_c       20.275782753631116
_cell_angle_alpha    88.79220736031418
_cell_angle_beta     90.0
_cell_angle_gamma    90.0

_space_group_name_H-M_alt    "P 1"
_space_group_IT_number       1

loop_
  _space_group_symop_operation_xyz
  'x, y, z'

loop_
  _atom_site_type_symbol
  _atom_site_label
  _atom_site_symmetry_multiplicity
  _atom_site_fract_x
  _atom_site_fract_y
  _atom_site_fract_z
  _atom_site_occupancy
  Na  Na1       1.0  0.11091228559519462  0.00328123169908745  0.9355630141400663  1.0000
  Na  Na2       1.0  0.9681079598238924  0.7567232101848843  0.5545469174348218  1.0000
  Na  Na3       1.0  0.7413794911966989  0.6370424659300947  0.06952258360802309  1.0000
  Na  Na4       1.0  0.7567140875733197  0.7496660357056353  0.4177207216252719  1.0000
  C   C1        1.0  0.49778285828108426  0.24166689081454945  0.5845181822238364  1.0000
  C   C2        1.0  0.20240188989063246  0.2546353356502995  0.07029894320567931  1.0000
  C   C3        1.0  0.20635649383136978  0.13193551560399097  0.4600004940377766  1.0000
  C   C4        1.0  0.6034190234093795  0.4960737441448124  0.94740911916809  1.0000
  C   C5        1.0  0.2807092064004389  0.8689668758809295  0.7421041155147331  1.0000
  C   C6        1.0  0.818832341216432  0.4751638965566318  0.7480960140080628  1.0000
  C   C7        1.0  0.5200614281884777  0.18844434448036007  0.3063739688139145  1.0000
  C   C8        1.0  0.20412938625239274  0.7697267069431024  0.1771164320040068  1.0000
  N   N1        1.0  0.6776525665159504  0.3870602283561313  0.5702529804520808  1.0000
  N   N2        1.0  0.37050998768063614  0.45842594327207253  0.04461931874121294  1.0000
  N   N3        1.0  0.40636491106037487  0.11270832741545256  0.43593278504867555  1.0000
  N   N4        1.0  0.4055211259486067  0.4271663611818517  0.9299078177424585  1.0000
  O   O1        1.0  0.2888966621491973  0.15543131358285628  0.5846572262422154  1.0000
  O   O2        1.0  0.9801683040099759  0.14036790112410413  0.06680284668143344  1.0000
  O   O3        1.0  0.982464254730616  0.1892139548565459  0.45992129910638513  1.0000
  O   O4        1.0  0.7896241185466325  0.659376588730828  0.9603676213272606  1.0000
  O   O5        1.0  0.24005601332265808  0.998004576023904  0.7972323635459821  1.0000
  O   O6        1.0  0.8024084065144179  0.5412594444150116  0.6869912059040917  1.0000
  O   O7        1.0  0.38634307095992937  0.9361828262473033  0.3193561597665476  1.0000
  O   O8        1.0  0.4291414375653744  0.7543939120567844  0.16902281881634007  1.0000
  O   O9        1.0  0.26765080161727406  0.7809664617272789  0.6876796795581438  1.0000
  O   O10       1.0  0.8349288869246942  0.35519842410782365  0.8019147482316717  1.0000
  O   O11       1.0  0.6314698999046933  0.4646489851992428  0.30292856765366327  1.0000
  O   O12       1.0  0.0029396984566891775  0.8478745573629058  0.18936491338577757  1.0000
data_image149
_chemical_formula_structural       Na4C8N4O12
_chemical_formula_sum              "Na4 C8 N4 O12"
_cell_length_a       5.423166
_cell_length_b       3.6248270000000002
_cell_length_c       20.275782753631116
_cell_angle_alpha    88.79220736031418
_cell_angle_beta     90.0
_cell_angle_gamma    90.0

_space_group_name_H-M_alt    "P 1"
_space_group_IT_number       1

loop_
  _space_group_symop_operation_xyz
  'x, y, z'

loop_
  _atom_site_type_symbol
  _atom_site_label
  _atom_site_symmetry_multiplicity
  _atom_site_fract_x
  _atom_site_fract_y
  _atom_site_fract_z
  _atom_site_occupancy
  Na  Na1       1.0  0.16722059314590532  0.0057549953235447315  0.9020847586342057  1.0000
  Na  Na2       1.0  0.8934828826207077  0.8754083189837439  0.5592476647201773  1.0000
  Na  Na3       1.0  0.5369454725844388  0.6892484458008294  0.10149030439854044  1.0000
  Na  Na4       1.0  0.6954863154605553  0.6245239125732152  0.3971645130440934  1.0000
  C   C1        1.0  0.41443434101230336  0.32940709043868244  0.5726546038388696  1.0000
  C   C2        1.0  0.052232847027070095  0.15322505904960781  0.08352233096106332  1.0000
  C   C3        1.0  0.21493022831780584  0.03795405389533002  0.4189730937499653  1.0000
  C   C4        1.0  0.7434345601506007  0.5592839008043793  0.9201976823140677  1.0000
  C   C5        1.0  0.30203509627166436  0.862196073793331  0.7590941300790074  1.0000
  C   C6        1.0  0.732074142988971  0.5935947512406885  0.7492263094047152  1.0000
  C   C7        1.0  0.6885375854846312  0.1025156338819273  0.318216530397725  1.0000
  C   C8        1.0  0.26207793821398084  0.8593983288245284  0.21148999029764676  1.0000
  N   N1        1.0  0.6214575423953546  0.4060106561765742  0.5557541639177964  1.0000
  N   N2        1.0  0.2378350869980821  0.33673062479201965  0.07502891141635115  1.0000
  N   N3        1.0  0.32308620490683193  0.762402890376574  0.4486663129959305  1.0000
  N   N4        1.0  0.5307028645176584  0.5361765365273778  0.9003850197923808  1.0000
  O   O1        1.0  0.1854137112920652  0.344733732781966  0.5844688498537881  1.0000
  O   O2        1.0  0.825733334347543  0.06926625643690709  0.0993064305326139  1.0000
  O   O3        1.0  0.058614857994041314  0.23301079447854933  0.40063868785440054  1.0000
  O   O4        1.0  0.9545612127406171  0.4517054746454603  0.9390918709505677  1.0000
  O   O5        1.0  0.31417460572301487  0.9884325074122193  0.812272360006806  1.0000
  O   O6        1.0  0.7760984032371165  0.3917402180921363  0.7046736940819087  1.0000
  O   O7        1.0  0.4621682587235688  0.11859635260261803  0.3164420512265983  1.0000
  O   O8        1.0  0.43854504310056974  0.07945543636042474  0.19472696609566906  1.0000
  O   O9        1.0  0.2976862217380015  0.7023820356060813  0.7075804919313556  1.0000
  O   O10       1.0  0.7792031335830565  0.8722899717567731  0.7838357882210704  1.0000
  O   O11       1.0  0.8842529218542707  0.15289212421433063  0.2835376756700803  1.0000
  O   O12       1.0  0.1390504501496435  0.598978643367456  0.22754821839995457  1.0000
data_image150
_chemical_formula_structural       Na4C8N4O12
_chemical_formula_sum              "Na4 C8 N4 O12"
_cell_length_a       5.423166
_cell_length_b       3.6248270000000002
_cell_length_c       20.275782753631116
_cell_angle_alpha    88.79220736031418
_cell_angle_beta     90.0
_cell_angle_gamma    90.0

_space_group_name_H-M_alt    "P 1"
_space_group_IT_number       1

loop_
  _space_group_symop_operation_xyz
  'x, y, z'

loop_
  _atom_site_type_symbol
  _atom_site_label
  _atom_site_symmetry_multiplicity
  _atom_site_fract_x
  _atom_site_fract_y
  _atom_site_fract_z
  _atom_site_occupancy
  Na  Na1       1.0  0.2609687194953644  0.050097463849472  0.9215434948129988  1.0000
  Na  Na2       1.0  0.8355051910984448  0.8238572839824586  0.5898411842104297  1.0000
  Na  Na3       1.0  0.5119454084542128  0.4898937256093872  0.08137984186972942  1.0000
  Na  Na4       1.0  0.6532121875636709  0.5201988940572702  0.46342128291309637  1.0000
  C   C1        1.0  0.38493876678815875  0.2468058661356393  0.566477536796543  1.0000
  C   C2        1.0  0.9829954831242087  0.025217837401354082  0.04860279342759566  1.0000
  C   C3        1.0  0.1924492405541851  0.04315015604204353  0.4331851099916659  1.0000
  C   C4        1.0  0.7156347204158462  0.7615490225095187  0.9532167263654145  1.0000
  C   C5        1.0  0.35057012247210284  0.07984772934128426  0.7159566587831365  1.0000
  C   C6        1.0  0.8141632196677597  0.34611372126223783  0.7349909455163429  1.0000
  C   C7        1.0  0.7489070940535917  0.27375593547329613  0.2816487441180433  1.0000
  C   C8        1.0  0.24501095874409784  0.9192205075996416  0.227226930516938  1.0000
  N   N1        1.0  0.5938219878784753  0.2425209941413785  0.5591256720914665  1.0000
  N   N2        1.0  0.19039256253316839  0.018871820537642137  0.05160498987264894  1.0000
  N   N3        1.0  0.3986089557222925  0.9447699677665198  0.4330357773685609  1.0000
  N   N4        1.0  0.5263984180674399  0.6424925211763752  0.9770670924669482  1.0000
  O   O1        1.0  0.1651609207843857  0.2683319722522485  0.5765701074916174  1.0000
  O   O2        1.0  0.7557054329184936  0.08670196414330933  0.0678350237793719  1.0000
  O   O3        1.0  0.002120489129534997  0.22246757580352972  0.4362939148742964  1.0000
  O   O4        1.0  0.9300054611414049  0.7268307281713757  0.9303602287585624  1.0000
  O   O5        1.0  0.343116045786293  0.28857833554252643  0.7595275361573897  1.0000
  O   O6        1.0  0.7676143870891265  0.3144899190410926  0.6818205650681525  1.0000
  O   O7        1.0  0.6977275349274976  0.27127599150221315  0.3421093333449497  1.0000
  O   O8        1.0  0.3700773235047663  0.16588441927145636  0.1934641210936918  1.0000
  O   O9        1.0  0.2754757680003717  0.8557842658257218  0.6779157442064121  1.0000
  O   O10       1.0  0.8457250871675224  0.4583601906103403  0.7896150067955209  1.0000
  O   O11       1.0  0.8664101294767416  0.16435738235482855  0.23531501355234546  1.0000
  O   O12       1.0  0.1269493333525942  0.6484312036983448  0.24348261192483248  1.0000
data_image151
_chemical_formula_structural       Na4C8N4O12
_chemical_formula_sum              "Na4 C8 N4 O12"
_cell_length_a       5.423166
_cell_length_b       3.6248270000000002
_cell_length_c       20.275782753631116
_cell_angle_alpha    88.79220736031418
_cell_angle_beta     90.0
_cell_angle_gamma    90.0

_space_group_name_H-M_alt    "P 1"
_space_group_IT_number       1

loop_
  _space_group_symop_operation_xyz
  'x, y, z'

loop_
  _atom_site_type_symbol
  _atom_site_label
  _atom_site_symmetry_multiplicity
  _atom_site_fract_x
  _atom_site_fract_y
  _atom_site_fract_z
  _atom_site_occupancy
  Na  Na1       1.0  0.2977590376647601  0.2118121124876048  0.9307839896792942  1.0000
  Na  Na2       1.0  0.7999572381281226  0.8577424682541414  0.57734806050595  1.0000
  Na  Na3       1.0  0.49459730844004207  0.5884605652462276  0.09976977933375797  1.0000
  Na  Na4       1.0  0.6241183557940015  0.5146012214637299  0.4359189359568038  1.0000
  C   C1        1.0  0.3209661868614613  0.38701319642844645  0.556172819348927  1.0000
  C   C2        1.0  0.9865729438668769  0.09771459280906702  0.054371731367756304  1.0000
  C   C3        1.0  0.09987587524745933  0.0076722867241554304  0.4366976375634749  1.0000
  C   C4        1.0  0.7869355983655988  0.6606448733554542  0.9052290008900991  1.0000
  C   C5        1.0  0.293472776345025  0.0008143578395412021  0.7016643016569083  1.0000
  C   C6        1.0  0.8025664262147896  0.0006988901164524108  0.7621390815326844  1.0000
  C   C7        1.0  0.7798965403621005  0.46560058048428365  0.3091411395246556  1.0000
  C   C8        1.0  0.2836934782905489  0.8560775978072941  0.24508680123986157  1.0000
  N   N1        1.0  0.545675822725781  0.38813646549030195  0.5486819300600827  1.0000
  N   N2        1.0  0.21186312769177562  0.1063665294239109  0.03491350092176093  1.0000
  N   N3        1.0  0.3270252914947889  0.03834436404519792  0.4344580021742215  1.0000
  N   N4        1.0  0.5674563434225712  0.6014863840372202  0.9255865691679032  1.0000
  O   O1        1.0  0.12790128258627143  0.2914365775052069  0.5731462520303265  1.0000
  O   O2        1.0  0.7875087092735418  0.14205052467189105  0.07529980332116826  1.0000
  O   O3        1.0  0.8833982172218698  0.9881220475953181  0.4562292798216742  1.0000
  O   O4        1.0  0.9888847388370282  0.7045140770410914  0.8886886723237225  1.0000
  O   O5        1.0  0.2729841855919049  0.2178471300073035  0.7440783667425126  1.0000
  O   O6        1.0  0.8541099151932032  0.9066237784269815  0.7011908250105107  1.0000
  O   O7        1.0  0.8170852711169782  0.7351910242892155  0.3484311132627607  1.0000
  O   O8        1.0  0.32855281590031993  0.8113487133079215  0.18823297250352988  1.0000
  O   O9        1.0  0.39353495208856126  0.8056480316083867  0.668240680669803  1.0000
  O   O10       1.0  0.7811879348196604  0.18983379535734235  0.8099370249106074  1.0000
  O   O11       1.0  0.7469045198986032  0.27915520500376967  0.2598935366451639  1.0000
  O   O12       1.0  0.3395743257024786  0.9046138019393597  0.2988458796226343  1.0000
data_image152
_chemical_formula_structural       Na4C8N4O12
_chemical_formula_sum              "Na4 C8 N4 O12"
_cell_length_a       5.423166
_cell_length_b       3.6248270000000002
_cell_length_c       20.275782753631116
_cell_angle_alpha    88.79220736031418
_cell_angle_beta     90.0
_cell_angle_gamma    90.0

_space_group_name_H-M_alt    "P 1"
_space_group_IT_number       1

loop_
  _space_group_symop_operation_xyz
  'x, y, z'

loop_
  _atom_site_type_symbol
  _atom_site_label
  _atom_site_symmetry_multiplicity
  _atom_site_fract_x
  _atom_site_fract_y
  _atom_site_fract_z
  _atom_site_occupancy
  Na  Na1       1.0  0.2908214884657371  0.07262220851942192  0.9088293728740781  1.0000
  Na  Na2       1.0  0.8196249837226068  0.9404483215319592  0.5892410758548835  1.0000
  Na  Na3       1.0  0.5491924937273126  0.6112602046241014  0.04723978897236433  1.0000
  Na  Na4       1.0  0.6711336477130567  0.5233682096726175  0.4260894387448828  1.0000
  C   C1        1.0  0.34169277411972143  0.4216704770899198  0.583964071291748  1.0000
  C   C2        1.0  0.9734400242701573  0.04914258185482012  0.05048670154443369  1.0000
  C   C3        1.0  0.06070223091072946  0.17363674813396512  0.4392355964072385  1.0000
  C   C4        1.0  0.8013797786978774  0.6368838018012268  0.9263380075079714  1.0000
  C   C5        1.0  0.2946121436992232  0.9480723221839538  0.7190492559907762  1.0000
  C   C6        1.0  0.7876410643013978  0.8849469020013608  0.7559677868122155  1.0000
  C   C7        1.0  0.8135024306400315  0.5386848142853236  0.27881605539885856  1.0000
  C   C8        1.0  0.30437625671444946  0.9416833095881747  0.2539382374449255  1.0000
  N   N1        1.0  0.5250232998042084  0.5089371770390474  0.5592415259408362  1.0000
  N   N2        1.0  0.17953747941326537  0.9343105688263522  0.045620636232893474  1.0000
  N   N3        1.0  0.26437596517380624  0.265221429863137  0.41959763097515745  1.0000
  N   N4        1.0  0.6032771677826607  0.7750490977395001  0.9300744869549696  1.0000
  O   O1        1.0  0.13905888800385857  0.3773787680743217  0.6124002935261866  1.0000
  O   O2        1.0  0.7734294951326078  0.15267817206608036  0.044284603789083166  1.0000
  O   O3        1.0  0.9048389335295327  0.03523727897299711  0.4780450025529179  1.0000
  O   O4        1.0  0.03878050405564659  0.5673193472011864  0.9151494961620636  1.0000
  O   O5        1.0  0.20620340849811078  0.11413045770872676  0.7607162830164089  1.0000
  O   O6        1.0  0.8424865072976082  0.6551832250554732  0.7149637387769892  1.0000
  O   O7        1.0  0.8861479530532875  0.6529005478660254  0.3279961381345205  1.0000
  O   O8        1.0  0.19536241191285675  0.8913904276798659  0.20013141463832693  1.0000
  O   O9        1.0  0.3946812931903297  0.7855219099624602  0.6779344829206642  1.0000
  O   O10       1.0  0.7299779705305101  0.08548311289008903  0.797301299143545  1.0000
  O   O11       1.0  0.7426688139145003  0.2868183167261291  0.24487915767320292  1.0000
  O   O12       1.0  0.3558312299884538  0.017427237950774277  0.3041857324734971  1.0000
data_image153
_chemical_formula_structural       Na4C8N4O12
_chemical_formula_sum              "Na4 C8 N4 O12"
_cell_length_a       5.423166
_cell_length_b       3.6248270000000002
_cell_length_c       20.275782753631116
_cell_angle_alpha    88.79220736031418
_cell_angle_beta     90.0
_cell_angle_gamma    90.0

_space_group_name_H-M_alt    "P 1"
_space_group_IT_number       1

loop_
  _space_group_symop_operation_xyz
  'x, y, z'

loop_
  _atom_site_type_symbol
  _atom_site_label
  _atom_site_symmetry_multiplicity
  _atom_site_fract_x
  _atom_site_fract_y
  _atom_site_fract_z
  _atom_site_occupancy
  Na  Na1       1.0  0.38648112322706263  0.06878812029901482  0.8958966753390694  1.0000
  Na  Na2       1.0  0.8973300619634326  0.04802073571035548  0.5756170756781441  1.0000
  Na  Na3       1.0  0.3610902663574586  0.49987477776461153  0.039523404073306866  1.0000
  Na  Na4       1.0  0.5710756120667969  0.7410376322609249  0.44404929759475303  1.0000
  C   C1        1.0  0.4123143814993553  0.4513365080537135  0.5723854952248602  1.0000
  C   C2        1.0  0.8811795355463077  0.9756970704600227  0.05059564405499728  1.0000
  C   C3        1.0  0.08453059206280944  0.2026020810226803  0.44958982559740396  1.0000
  C   C4        1.0  0.907032654856677  0.5394607055471901  0.9270348856049996  1.0000
  C   C5        1.0  0.34633705304737217  0.02802182145664922  0.747604233003044  1.0000
  C   C6        1.0  0.8219590327498201  0.8826697410790145  0.7778024916710266  1.0000
  C   C7        1.0  0.7685173843218931  0.3906569693717299  0.2646075920139453  1.0000
  C   C8        1.0  0.20449042186118116  0.013999660427273852  0.238609850128715  1.0000
  N   N1        1.0  0.6317976379228528  0.47615427804540295  0.5802325546586139  1.0000
  N   N2        1.0  0.11732365038930959  0.937784348779551  0.05411011765303764  1.0000
  N   N3        1.0  0.29128022188493397  0.0985353040559156  0.4244810475014307  1.0000
  N   N4        1.0  0.6943685490736204  0.5075751500565486  0.9412137882735754  1.0000
  O   O1        1.0  0.2013433241539555  0.46207039034749464  0.5502282836173343  1.0000
  O   O2        1.0  0.6733705555531341  0.013217374297846085  0.04227970413875459  1.0000
  O   O3        1.0  0.8616663512368808  0.09586825872885996  0.4693937981813208  1.0000
  O   O4        1.0  0.12677073000628658  0.6519071915508379  0.9180787731417963  1.0000
  O   O5        1.0  0.2917211599868619  0.1315111602384782  0.7998377276262307  1.0000
  O   O6        1.0  0.9228473978372589  0.7858679666263662  0.7316874657403925  1.0000
  O   O7        1.0  0.8526652547523546  0.45958467424277905  0.3181920189163001  1.0000
  O   O8        1.0  0.0839629296350044  0.8813965885517929  0.19516932571393877  1.0000
  O   O9        1.0  0.38411387103718725  0.9497389703394725  0.6925158636495866  1.0000
  O   O10       1.0  0.8049639585388451  0.011092616614235107  0.8279688011423706  1.0000
  O   O11       1.0  0.6609140832025358  0.37678864624419084  0.2156988232846461  1.0000
  O   O12       1.0  0.332030648911061  0.9851796053741684  0.28536957878823904  1.0000
data_image154
_chemical_formula_structural       Na4C8N4O12
_chemical_formula_sum              "Na4 C8 N4 O12"
_cell_length_a       5.423166
_cell_length_b       3.6248270000000002
_cell_length_c       20.275782753631116
_cell_angle_alpha    88.79220736031418
_cell_angle_beta     90.0
_cell_angle_gamma    90.0

_space_group_name_H-M_alt    "P 1"
_space_group_IT_number       1

loop_
  _space_group_symop_operation_xyz
  'x, y, z'

loop_
  _atom_site_type_symbol
  _atom_site_label
  _atom_site_symmetry_multiplicity
  _atom_site_fract_x
  _atom_site_fract_y
  _atom_site_fract_z
  _atom_site_occupancy
  Na  Na1       1.0  0.49370062026175887  0.9699695274638744  0.9129254009810307  1.0000
  Na  Na2       1.0  0.9880212052807011  0.0928951026882121  0.6056865442622735  1.0000
  Na  Na3       1.0  0.4237998037074272  0.5041105047647453  0.028413487909885835  1.0000
  Na  Na4       1.0  0.6304452525019603  0.684319948913743  0.4015531117965233  1.0000
  C   C1        1.0  0.5358454455958719  0.5738029179732326  0.5947659852464201  1.0000
  C   C2        1.0  0.878512053131661  0.07787999852224559  0.056306801718064126  1.0000
  C   C3        1.0  0.06496625668496248  0.31343458204103625  0.44379384713986764  1.0000
  C   C4        1.0  0.022483161214846614  0.5007125188049977  0.9368909715750002  1.0000
  C   C5        1.0  0.3597069298587559  0.08253537291042923  0.7346599692481928  1.0000
  C   C6        1.0  0.7795881952011132  0.7774169941106124  0.7936564289539391  1.0000
  C   C7        1.0  0.5313991406547575  0.34923442556089757  0.24499048579867644  1.0000
  C   C8        1.0  0.09065930761557484  0.813136137587952  0.23810047018645253  1.0000
  N   N1        1.0  0.7549080861947207  0.5556939818008346  0.5988991174348854  1.0000
  N   N2        1.0  0.08586688465335601  0.9998580851662633  0.05117052327621763  1.0000
  N   N3        1.0  0.27038935304183775  0.41845848030847455  0.41281193975655706  1.0000
  N   N4        1.0  0.8443965791055585  0.6211920610871933  0.9641517949794924  1.0000
  O   O1        1.0  0.3000314203015596  0.6073306830602865  0.5838091086251705  1.0000
  O   O2        1.0  0.6676989800856075  0.052539628260848126  0.06789850003949072  1.0000
  O   O3        1.0  0.8520157841812803  0.1436332680402148  0.44992095092022466  1.0000
  O   O4        1.0  0.22092353404373233  0.4455155142883833  0.9061313454707162  1.0000
  O   O5        1.0  0.34312138232026396  0.07351372186502347  0.790615574755946  1.0000
  O   O6        1.0  0.8076030279246635  0.6347804250362279  0.7396250920169035  1.0000
  O   O7        1.0  0.6790562797719173  0.24938466419926375  0.2817548359365005  1.0000
  O   O8        1.0  0.9976679989574745  0.942535765772952  0.19500269454935837  1.0000
  O   O9        1.0  0.3978399244582963  0.07780266689193471  0.6782367813539802  1.0000
  O   O10       1.0  0.7843435308716806  0.013521057895713007  0.8365531335378169  1.0000
  O   O11       1.0  0.44272218711180966  0.46702156835307895  0.1951927340107321  1.0000
  O   O12       1.0  0.17491978369197775  0.7453286358149795  0.29542902864641274  1.0000
data_image155
_chemical_formula_structural       Na4C8N4O12
_chemical_formula_sum              "Na4 C8 N4 O12"
_cell_length_a       5.423166
_cell_length_b       3.6248270000000002
_cell_length_c       20.275782753631116
_cell_angle_alpha    88.79220736031418
_cell_angle_beta     90.0
_cell_angle_gamma    90.0

_space_group_name_H-M_alt    "P 1"
_space_group_IT_number       1

loop_
  _space_group_symop_operation_xyz
  'x, y, z'

loop_
  _atom_site_type_symbol
  _atom_site_label
  _atom_site_symmetry_multiplicity
  _atom_site_fract_x
  _atom_site_fract_y
  _atom_site_fract_z
  _atom_site_occupancy
  Na  Na1       1.0  0.5698415659215265  0.13485159917148593  0.9105554419065044  1.0000
  Na  Na2       1.0  0.13587213099228068  0.23390878745390276  0.5816541815729258  1.0000
  Na  Na3       1.0  0.546454305477153  0.5435178553504472  0.05110269023763468  1.0000
  Na  Na4       1.0  0.47337345563543604  0.8969203047404659  0.40186789245268095  1.0000
  C   C1        1.0  0.7144823385318895  0.7245669698426187  0.579185966479176  1.0000
  C   C2        1.0  0.9920210184705278  0.0052083028882519145  0.05178565333104013  1.0000
  C   C3        1.0  0.1679579062978116  0.23070353192524706  0.4571255995969542  1.0000
  C   C4        1.0  0.977547093969716  0.6464696057027486  0.9401148624197488  1.0000
  C   C5        1.0  0.2698484852449376  0.017430021790308725  0.7567586111566833  1.0000
  C   C6        1.0  0.8265820974982028  0.5816407036813148  0.771442834170699  1.0000
  C   C7        1.0  0.4544156382824589  0.3479882738314476  0.21654821183914658  1.0000
  C   C8        1.0  0.8740525980044352  0.7005402040255979  0.2322455585892465  1.0000
  N   N1        1.0  0.892696010338433  0.7944815526488007  0.6097790541480609  1.0000
  N   N2        1.0  0.19913015786168142  0.07614369071343718  0.04737830844894653  1.0000
  N   N3        1.0  0.36200004963803156  0.36431216769320507  0.4553669763656022  1.0000
  N   N4        1.0  0.7763489844206581  0.5520187697584968  0.9602927700037257  1.0000
  O   O1        1.0  0.5052890537361867  0.590559664127165  0.5758265722544711  1.0000
  O   O2        1.0  0.7799785760005303  0.9821423492021673  0.05507068315065178  1.0000
  O   O3        1.0  0.970808832111762  0.06242313373030228  0.45459499812896914  1.0000
  O   O4        1.0  0.1976787556229178  0.7789603313821085  0.9340909066343162  1.0000
  O   O5        1.0  0.3598139380591066  0.9769330966505323  0.8095613719723977  1.0000
  O   O6        1.0  0.6914080457059975  0.36003063367939503  0.7444013666490074  1.0000
  O   O7        1.0  0.4444234539775831  0.22534634969640954  0.2744673064553097  1.0000
  O   O8        1.0  0.8371088127295306  0.9253496252885973  0.19079275386595673  1.0000
  O   O9        1.0  0.10160927593411474  0.029949513834966357  0.7196578343918332  1.0000
  O   O10       1.0  0.9256212520025757  0.7503791550497769  0.8124863920153795  1.0000
  O   O11       1.0  0.3419465068906239  0.4290697318522587  0.16770601170668017  1.0000
  O   O12       1.0  0.9873254303645581  0.541998546358081  0.2743870785187389  1.0000
data_image156
_chemical_formula_structural       Na4C8N4O12
_chemical_formula_sum              "Na4 C8 N4 O12"
_cell_length_a       5.423166
_cell_length_b       3.6248270000000002
_cell_length_c       20.275782753631116
_cell_angle_alpha    88.79220736031418
_cell_angle_beta     90.0
_cell_angle_gamma    90.0

_space_group_name_H-M_alt    "P 1"
_space_group_IT_number       1

loop_
  _space_group_symop_operation_xyz
  'x, y, z'

loop_
  _atom_site_type_symbol
  _atom_site_label
  _atom_site_symmetry_multiplicity
  _atom_site_fract_x
  _atom_site_fract_y
  _atom_site_fract_z
  _atom_site_occupancy
  Na  Na1       1.0  0.5081145518049047  0.8384011779521872  0.9189776301024767  1.0000
  Na  Na2       1.0  0.1675655413332875  0.5637185954422583  0.5880203931993118  1.0000
  Na  Na3       1.0  0.6220394976304493  0.22009606092349837  0.08044584961159462  1.0000
  Na  Na4       1.0  0.5138599002529072  0.9061203736904164  0.3645436182779603  1.0000
  C   C1        1.0  0.6612317316312251  0.9367241214339165  0.5669373568758924  1.0000
  C   C2        1.0  0.11635974643120306  0.9780215101554701  0.05135563472044424  1.0000
  C   C3        1.0  0.05046013428857843  0.23777421877869687  0.4268835322012632  1.0000
  C   C4        1.0  0.9171772449800046  0.5008074997822578  0.9400901420139276  1.0000
  C   C5        1.0  0.30329340857791864  0.09010500205457195  0.7603604436154817  1.0000
  C   C6        1.0  0.7955121466308532  0.5339855135053055  0.7508953993958358  1.0000
  C   C7        1.0  0.32162295341016944  0.4542654993810682  0.24039551357059744  1.0000
  C   C8        1.0  0.9353838283053455  0.6991414138460359  0.2751844751932243  1.0000
  N   N1        1.0  0.8878469120835479  0.8889571164008335  0.5711073909437587  1.0000
  N   N2        1.0  0.2535897089156727  0.20071630508458016  0.05107749539883133  1.0000
  N   N3        1.0  0.24328318056329556  0.35663690938239023  0.4303480270380078  1.0000
  N   N4        1.0  0.7413279341171222  0.32525059593009775  0.9597323019216177  1.0000
  O   O1        1.0  0.45728682112194696  0.033529594027509546  0.5787216401470089  1.0000
  O   O2        1.0  0.9561658441639853  0.7533705815601659  0.07172920574006048  1.0000
  O   O3        1.0  0.8391509150569443  0.09855879656939015  0.42768484346212465  1.0000
  O   O4        1.0  0.08536606776814692  0.655909929527946  0.9054224783623047  1.0000
  O   O5        1.0  0.3983282572022236  0.07201687321692551  0.8155354603641897  1.0000
  O   O6        1.0  0.7422641535943788  0.7834813525836473  0.7164019537503439  1.0000
  O   O7        1.0  0.4238215755443167  0.3090743185610575  0.28538188809286924  1.0000
  O   O8        1.0  0.7943800734998414  0.5264004732931545  0.2444033331475854  1.0000
  O   O9        1.0  0.2801992552304279  0.005920136004338161  0.7076056686349783  1.0000
  O   O10       1.0  0.9177476994397318  0.3459472113830365  0.7889808436847441  1.0000
  O   O11       1.0  0.33134266442915133  0.553650567360966  0.18192370652900572  1.0000
  O   O12       1.0  0.018589086330121515  0.8033222650803231  0.32677991292362446  1.0000
data_image157
_chemical_formula_structural       Na4C8N4O12
_chemical_formula_sum              "Na4 C8 N4 O12"
_cell_length_a       5.423166
_cell_length_b       3.6248270000000002
_cell_length_c       20.275782753631116
_cell_angle_alpha    88.79220736031418
_cell_angle_beta     90.0
_cell_angle_gamma    90.0

_space_group_name_H-M_alt    "P 1"
_space_group_IT_number       1

loop_
  _space_group_symop_operation_xyz
  'x, y, z'

loop_
  _atom_site_type_symbol
  _atom_site_label
  _atom_site_symmetry_multiplicity
  _atom_site_fract_x
  _atom_site_fract_y
  _atom_site_fract_z
  _atom_site_occupancy
  Na  Na1       1.0  0.3977761964326272  0.46844315638890643  0.9427045844646287  1.0000
  Na  Na2       1.0  0.2736370452891329  0.6115800435175092  0.5990167453535749  1.0000
  Na  Na3       1.0  0.6548808297945147  0.46450964490756896  0.06728619591759338  1.0000
  Na  Na4       1.0  0.40648734485861027  0.6877656204017981  0.4317768934727114  1.0000
  C   C1        1.0  0.6926107865008806  0.2701830741755742  0.5669870584289133  1.0000
  C   C2        1.0  0.13522216399116238  0.805350853180925  0.07849819171701244  1.0000
  C   C3        1.0  0.8924131769102067  0.2846953816233091  0.4221712102718157  1.0000
  C   C4        1.0  0.8706120254890952  0.2278276741164018  0.9541204351437054  1.0000
  C   C5        1.0  0.3897419213636282  0.2341621182205813  0.7722432846025817  1.0000
  C   C6        1.0  0.8346753674758765  0.40506121626163666  0.7370257257968188  1.0000
  C   C7        1.0  0.5093839589286121  0.3853886125744669  0.2355167276810162  1.0000
  C   C8        1.0  0.9247850834044676  0.9753346612254283  0.2330466425464569  1.0000
  N   N1        1.0  0.8979795454963242  0.34812814770356826  0.5797954686734755  1.0000
  N   N2        1.0  0.2753342596765751  0.567688902948418  0.08188519555116702  1.0000
  N   N3        1.0  0.11487715737346305  0.3198459320648337  0.4310154491446332  1.0000
  N   N4        1.0  0.7079790975796638  0.0383064221260363  0.9770190944504051  1.0000
  O   O1        1.0  0.5119963819828651  0.09880269700035393  0.5461704165089734  1.0000
  O   O2        1.0  0.9322380513359401  0.930655889897295  0.07573794110765752  1.0000
  O   O3        1.0  0.6906637282895277  0.2202478769104812  0.40372232826501836  1.0000
  O   O4        1.0  0.024006249389419088  0.410589273625539  0.9191299568321156  1.0000
  O   O5        1.0  0.33030043539623843  0.45198789611550305  0.8076964744083821  1.0000
  O   O6        1.0  0.747763288171569  0.5909931383310547  0.6957743050760836  1.0000
  O   O7        1.0  0.5336273005070785  0.5479946653282682  0.28874271216582936  1.0000
  O   O8        1.0  0.9092583769056986  0.7642781295590525  0.1892224852512288  1.0000
  O   O9        1.0  0.35969623698175135  0.07412464271194086  0.7172483707103847  1.0000
  O   O10       1.0  0.9042379634589377  0.19043023071926662  0.7755617644915404  1.0000
  O   O11       1.0  0.4538307269532769  0.26392869418591014  0.18340799688467901  1.0000
  O   O12       1.0  0.9635323934206791  0.13971780231812314  0.2801795114099047  1.0000
data_image158
_chemical_formula_structural       Na4C8N4O12
_chemical_formula_sum              "Na4 C8 N4 O12"
_cell_length_a       5.423166
_cell_length_b       3.6248270000000002
_cell_length_c       20.275782753631116
_cell_angle_alpha    88.79220736031418
_cell_angle_beta     90.0
_cell_angle_gamma    90.0

_space_group_name_H-M_alt    "P 1"
_space_group_IT_number       1

loop_
  _space_group_symop_operation_xyz
  'x, y, z'

loop_
  _atom_site_type_symbol
  _atom_site_label
  _atom_site_symmetry_multiplicity
  _atom_site_fract_x
  _atom_site_fract_y
  _atom_site_fract_z
  _atom_site_occupancy
  Na  Na1       1.0  0.2537625180281985  0.4070885250636498  0.9576027999072537  1.0000
  Na  Na2       1.0  0.19753892815853513  0.7115989538852943  0.5986311263238833  1.0000
  Na  Na3       1.0  0.7558198967982646  0.5115261043586304  0.046682534442919185  1.0000
  Na  Na4       1.0  0.23789130058148594  0.51435502343173  0.43147140771949993  1.0000
  C   C1        1.0  0.7665169842509845  0.31516936055736267  0.5791953990560111  1.0000
  C   C2        1.0  0.23279980820777935  0.9853364507992115  0.04713310168539664  1.0000
  C   C3        1.0  0.7812152783165014  0.9642193134881096  0.40748937004345537  1.0000
  C   C4        1.0  0.7659054968855288  0.08592855313445114  0.9120597536007027  1.0000
  C   C5        1.0  0.3132352969640851  0.25630093121654474  0.7891123039886768  1.0000
  C   C6        1.0  0.817928323943145  0.43190085262276934  0.7168278421448496  1.0000
  C   C7        1.0  0.5901848690484982  0.30811032557769436  0.2430475518086046  1.0000
  C   C8        1.0  0.0862852615975247  0.23593125492240397  0.2666594251931488  1.0000
  N   N1        1.0  0.9713722137336278  0.2106554372193954  0.5965710928156887  1.0000
  N   N2        1.0  0.44372042689713465  0.9204333855604152  0.06578859267284343  1.0000
  N   N3        1.0  0.99947156536495  0.9602254441483598  0.4169050837904675  1.0000
  N   N4        1.0  0.5738549818520879  0.9361162549587327  0.9332143721885251  1.0000
  O   O1        1.0  0.5461376816644744  0.3715199995549012  0.568344616161464  1.0000
  O   O2        1.0  0.9972756859352115  0.0362487560531739  0.04369950135665368  1.0000
  O   O3        1.0  0.5744362278918594  0.050974196465224164  0.39261826512507353  1.0000
  O   O4        1.0  0.9148993223090749  0.32924912266998296  0.9035185939807817  1.0000
  O   O5        1.0  0.3722378916671127  0.4618351644184413  0.8309393526823777  1.0000
  O   O6        1.0  0.7042555998997957  0.6627095740134241  0.6897058441527038  1.0000
  O   O7        1.0  0.6809940423020928  0.4383261519944648  0.28468452876384964  1.0000
  O   O8        1.0  0.9928287593083397  0.04048204886264806  0.23057310929865865  1.0000
  O   O9        1.0  0.3285604304810359  0.9966023328791025  0.7538935977521181  1.0000
  O   O10       1.0  0.8959256091583265  0.21363193788203486  0.7516879591426116  1.0000
  O   O11       1.0  0.511067978155343  0.0884664577630615  0.20505611394992787  1.0000
  O   O12       1.0  0.18233455465003914  0.3402447087265137  0.3158910906453155  1.0000
data_image159
_chemical_formula_structural       Na4C8N4O12
_chemical_formula_sum              "Na4 C8 N4 O12"
_cell_length_a       5.423166
_cell_length_b       3.6248270000000002
_cell_length_c       20.275782753631116
_cell_angle_alpha    88.79220736031418
_cell_angle_beta     90.0
_cell_angle_gamma    90.0

_space_group_name_H-M_alt    "P 1"
_space_group_IT_number       1

loop_
  _space_group_symop_operation_xyz
  'x, y, z'

loop_
  _atom_site_type_symbol
  _atom_site_label
  _atom_site_symmetry_multiplicity
  _atom_site_fract_x
  _atom_site_fract_y
  _atom_site_fract_z
  _atom_site_occupancy
  Na  Na1       1.0  0.21358543558807586  0.5078061528274713  0.9511605488432414  1.0000
  Na  Na2       1.0  0.07330978497529739  0.7892630631085462  0.6312728825275132  1.0000
  Na  Na3       1.0  0.902022132495907  0.5179913604181778  0.06311224801849634  1.0000
  Na  Na4       1.0  0.32284772057310385  0.11168194664732622  0.4742269133977502  1.0000
  C   C1        1.0  0.6389839114136104  0.3618774017479307  0.5538377356208273  1.0000
  C   C2        1.0  0.32029469955683076  0.9006291536194302  0.08286269731411999  1.0000
  C   C3        1.0  0.7826532540789225  0.7672359235483541  0.4159434886140073  1.0000
  C   C4        1.0  0.7522021017008123  0.9326424231910635  0.8976217855611469  1.0000
  C   C5        1.0  0.3426707926959809  0.2649205691932419  0.7888077523914723  1.0000
  C   C6        1.0  0.6982040393549587  0.5898341052505451  0.7127406267530583  1.0000
  C   C7        1.0  0.6642590525702856  0.4049963760085493  0.2292016352623879  1.0000
  C   C8        1.0  0.138334713092221  0.34477683166772843  0.26739639486229416  1.0000
  N   N1        1.0  0.8298004620495555  0.2046221971246509  0.5587049059762046  1.0000
  N   N2        1.0  0.5218366653274824  0.8151556431597891  0.07494615545903094  1.0000
  N   N3        1.0  0.9858200776232199  0.7660921307561099  0.43263528313185756  1.0000
  N   N4        1.0  0.5933680093910418  0.9515704766320663  0.9445243918635358  1.0000
  O   O1        1.0  0.4349351588990825  0.49781093364124995  0.5367317739242894  1.0000
  O   O2        1.0  0.1007348374706237  0.06288676769017876  0.08609420683443525  1.0000
  O   O3        1.0  0.5753413869048336  0.7954891194953775  0.399096839171574  1.0000
  O   O4        1.0  0.9416496918088035  0.8581522959274193  0.8680231798496927  1.0000
  O   O5        1.0  0.35417237199109164  0.49144282148015606  0.8301484232248656  1.0000
  O   O6        1.0  0.5729707647152331  0.6813694537164561  0.6669293740813579  1.0000
  O   O7        1.0  0.5845593450682813  0.6873971075480771  0.2502122665594847  1.0000
  O   O8        1.0  0.15692790335008322  0.20326794514071533  0.21637400923253025  1.0000
  O   O9        1.0  0.2906428341271681  0.032699339048573695  0.7516079727807954  1.0000
  O   O10       1.0  0.835373479128668  0.505890610660508  0.758606451374158  1.0000
  O   O11       1.0  0.6859980221499727  0.2507369206894541  0.18151543809727885  1.0000
  O   O12       1.0  0.1332841135852321  0.5378746595485451  0.3146948632755165  1.0000
data_image160
_chemical_formula_structural       Na4C8N4O12
_chemical_formula_sum              "Na4 C8 N4 O12"
_cell_length_a       5.423166
_cell_length_b       3.6248270000000002
_cell_length_c       20.275782753631116
_cell_angle_alpha    88.79220736031418
_cell_angle_beta     90.0
_cell_angle_gamma    90.0

_space_group_name_H-M_alt    "P 1"
_space_group_IT_number       1

loop_
  _space_group_symop_operation_xyz
  'x, y, z'

loop_
  _atom_site_type_symbol
  _atom_site_label
  _atom_site_symmetry_multiplicity
  _atom_site_fract_x
  _atom_site_fract_y
  _atom_site_fract_z
  _atom_site_occupancy
  Na  Na1       1.0  0.44528641495878885  0.5473878527863401  0.9639430622614916  1.0000
  Na  Na2       1.0  0.0815451080897629  0.7607120587992919  0.5989777601058445  1.0000
  Na  Na3       1.0  0.9269831217258494  0.5984355299204994  0.0790775461128055  1.0000
  Na  Na4       1.0  0.30320414045701427  0.07977243341249718  0.47862486740126636  1.0000
  C   C1        1.0  0.6351949338677088  0.38171399321355515  0.5749903766868537  1.0000
  C   C2        1.0  0.41196056228967715  0.02265887765111252  0.04812447010451626  1.0000
  C   C3        1.0  0.8422215793597798  0.59309804564653  0.4311486740352395  1.0000
  C   C4        1.0  0.7719671694196231  0.7854621796797447  0.9042923266752483  1.0000
  C   C5        1.0  0.1846011651773632  0.4256133379819138  0.7949214177770426  1.0000
  C   C6        1.0  0.5222111935755174  0.7220996584065543  0.6994650916625965  1.0000
  C   C7        1.0  0.6472031710606402  0.5126762635031372  0.24100421996876034  1.0000
  C   C8        1.0  0.17741751949482665  0.1597779293386994  0.24040545881583117  1.0000
  N   N1        1.0  0.8436376146852955  0.3364960589098105  0.590979871465972  1.0000
  N   N2        1.0  0.6090721897092  0.8813348718363263  0.05377141937274321  1.0000
  N   N3        1.0  0.016604270345405903  0.3697352686835904  0.4252306498278047  1.0000
  N   N4        1.0  0.5994299025915177  0.010900544581064153  0.9104781933474064  1.0000
  O   O1        1.0  0.43188419587817084  0.5279195394547456  0.5508781434761298  1.0000
  O   O2        1.0  0.20068074330162466  0.15676508979355486  0.052710856328011424  1.0000
  O   O3        1.0  0.6729039185011716  0.7762975165763764  0.44375347526566933  1.0000
  O   O4        1.0  0.8942508004286863  0.5706569691446097  0.882736637686826  1.0000
  O   O5        1.0  0.33456212636192295  0.4667295027552756  0.8345371571665504  1.0000
  O   O6        1.0  0.31100225615304944  0.7178967714083178  0.7043658340872563  1.0000
  O   O7        1.0  0.5617160142377711  0.6633724635089726  0.287569114818749  1.0000
  O   O8        1.0  0.3060570181499216  0.13362203945022144  0.1886562278281772  1.0000
  O   O9        1.0  0.004586312625187051  0.3234056559520422  0.7633360464455874  1.0000
  O   O10       1.0  0.7361062876474542  0.765325448079792  0.6955272633632696  1.0000
  O   O11       1.0  0.7977520093352364  0.3973269903653107  0.20035030370824902  1.0000
  O   O12       1.0  0.0496985662322841  0.11225584751380868  0.29086570638039755  1.0000
data_image161
_chemical_formula_structural       Na4C8N4O12
_chemical_formula_sum              "Na4 C8 N4 O12"
_cell_length_a       5.423166
_cell_length_b       3.6248270000000002
_cell_length_c       20.275782753631116
_cell_angle_alpha    88.79220736031418
_cell_angle_beta     90.0
_cell_angle_gamma    90.0

_space_group_name_H-M_alt    "P 1"
_space_group_IT_number       1

loop_
  _space_group_symop_operation_xyz
  'x, y, z'

loop_
  _atom_site_type_symbol
  _atom_site_label
  _atom_site_symmetry_multiplicity
  _atom_site_fract_x
  _atom_site_fract_y
  _atom_site_fract_z
  _atom_site_occupancy
  Na  Na1       1.0  0.38730259784296617  0.3237196258197723  0.9133071244047091  1.0000
  Na  Na2       1.0  0.03773647851331596  0.8000708389625097  0.5515197365340645  1.0000
  Na  Na3       1.0  0.9886843716228072  0.7224370935654698  0.09703932517271259  1.0000
  Na  Na4       1.0  0.42601441652733596  0.02146243374404655  0.3981770129030637  1.0000
  C   C1        1.0  0.537316900280346  0.3014053559111849  0.5804544299395963  1.0000
  C   C2        1.0  0.5001309243120043  0.21495094069132925  0.04700000024282258  1.0000
  C   C3        1.0  0.8878814377820808  0.43160437569591803  0.4095555410813112  1.0000
  C   C4        1.0  0.912618008561058  0.8367308394555883  0.9476923028173717  1.0000
  C   C5        1.0  0.9858310284314504  0.38388123693959475  0.8204374968171673  1.0000
  C   C6        1.0  0.3954309440918651  0.907351671279298  0.7141146537317188  1.0000
  C   C7        1.0  0.7274693871120556  0.5039921470101232  0.26391019855410924  1.0000
  C   C8        1.0  0.21792714110408773  0.03626430776881584  0.23691269842338625  1.0000
  N   N1        1.0  0.7283406117935509  0.25504020411722417  0.6099966307694339  1.0000
  N   N2        1.0  0.7036569769586096  0.22970663316702078  0.07164333895491581  1.0000
  N   N3        1.0  0.06673349302454645  0.336463096670808  0.3833706081885601  1.0000
  N   N4        1.0  0.6862734679098002  0.7400366130611145  0.9420187940385382  1.0000
  O   O1        1.0  0.3503539214135182  0.4554636177199958  0.5587014430162156  1.0000
  O   O2        1.0  0.27239178093374755  0.15208429917411026  0.041330283517343025  1.0000
  O   O3        1.0  0.6915968072850962  0.5030999606811783  0.44523748063978413  1.0000
  O   O4        1.0  0.1264903206004928  0.900842604301799  0.9360561910796802  1.0000
  O   O5        1.0  0.20585604965111595  0.3873320808198022  0.8084474853385893  1.0000
  O   O6        1.0  0.2803308022019766  0.1484949422356321  0.6872567840135928  1.0000
  O   O7        1.0  0.5289575482715099  0.43571392911322426  0.29025400510468935  1.0000
  O   O8        1.0  0.24389516502024744  0.1558773614411313  0.18370188567566995  1.0000
  O   O9        1.0  0.791788615323763  0.4136453015500461  0.8445490448982563  1.0000
  O   O10       1.0  0.5643447094526826  0.7445240302875729  0.7344135561317156  1.0000
  O   O11       1.0  0.8610777017007142  0.598198208042804  0.216914727699208  1.0000
  O   O12       1.0  0.18807605516487186  0.9082229343416677  0.29143335048355146  1.0000
data_image162
_chemical_formula_structural       Na4C8N4O12
_chemical_formula_sum              "Na4 C8 N4 O12"
_cell_length_a       5.423166
_cell_length_b       3.6248270000000002
_cell_length_c       20.275782753631116
_cell_angle_alpha    88.79220736031418
_cell_angle_beta     90.0
_cell_angle_gamma    90.0

_space_group_name_H-M_alt    "P 1"
_space_group_IT_number       1

loop_
  _space_group_symop_operation_xyz
  'x, y, z'

loop_
  _atom_site_type_symbol
  _atom_site_label
  _atom_site_symmetry_multiplicity
  _atom_site_fract_x
  _atom_site_fract_y
  _atom_site_fract_z
  _atom_site_occupancy
  Na  Na1       1.0  0.4579990993623567  0.25443778199274614  0.9429883046778119  1.0000
  Na  Na2       1.0  0.07343898823332129  0.636802517807187  0.540572082530827  1.0000
  Na  Na3       1.0  0.07570778495457464  0.5810640176565084  0.10252038578413393  1.0000
  Na  Na4       1.0  0.4875257903727699  0.22328635467614255  0.4022823331919648  1.0000
  C   C1        1.0  0.5919762079315463  0.19211023281886686  0.5396347947503057  1.0000
  C   C2        1.0  0.533778282974404  0.1310426873872217  0.09048254047272475  1.0000
  C   C3        1.0  0.9224230221416916  0.6603288905388225  0.41017589344555433  1.0000
  C   C4        1.0  0.8954066761109809  0.8426945591931791  0.9802336428729642  1.0000
  C   C5        1.0  0.922282324467534  0.3120009457050612  0.8244887181997997  1.0000
  C   C6        1.0  0.29709109914716714  0.09104907922835226  0.6898864318683571  1.0000
  C   C7        1.0  0.6958824750175457  0.44042217460019606  0.2414668386651762  1.0000
  C   C8        1.0  0.22212646963034732  0.07396101966601032  0.2360170736019763  1.0000
  N   N1        1.0  0.7955056106901576  0.14916055897935543  0.5638403958682745  1.0000
  N   N2        1.0  0.7222672024691383  0.9949836956654989  0.10697526721385575  1.0000
  N   N3        1.0  0.15416438534813537  0.6272189735856384  0.3959606511363597  1.0000
  N   N4        1.0  0.6903274696365114  0.8148058265051372  0.9964919045740234  1.0000
  O   O1        1.0  0.37579795481878686  0.29401997000699986  0.5220501569001782  1.0000
  O   O2        1.0  0.313006464925366  0.2261879390888737  0.07546222834988425  1.0000
  O   O3        1.0  0.7085155392205483  0.7143841006327047  0.43421970509138247  1.0000
  O   O4        1.0  0.11902716651995893  0.8874348028325862  0.9574551683784955  1.0000
  O   O5        1.0  0.10095878946860048  0.4532094327689604  0.8020757398805021  1.0000
  O   O6        1.0  0.13985152835362835  0.2137886087178993  0.6554348841226555  1.0000
  O   O7        1.0  0.6755890547717511  0.22276001701227965  0.28340001979812546  1.0000
  O   O8        1.0  0.2913396076843593  0.30904294701443114  0.1966330473378573  1.0000
  O   O9        1.0  0.706566738920537  0.21161692481167682  0.8236736258716022  1.0000
  O   O10       1.0  0.4016020234721003  0.893603314317164  0.7345291394790217  1.0000
  O   O11       1.0  0.6506980143648158  0.687251669433548  0.20601150927538459  1.0000
  O   O12       1.0  0.16334471402720302  0.8193562301192743  0.2632220116490474  1.0000
data_image163
_chemical_formula_structural       Na4C8N4O12
_chemical_formula_sum              "Na4 C8 N4 O12"
_cell_length_a       5.423166
_cell_length_b       3.6248270000000002
_cell_length_c       20.275782753631116
_cell_angle_alpha    88.79220736031418
_cell_angle_beta     90.0
_cell_angle_gamma    90.0

_space_group_name_H-M_alt    "P 1"
_space_group_IT_number       1

loop_
  _space_group_symop_operation_xyz
  'x, y, z'

loop_
  _atom_site_type_symbol
  _atom_site_label
  _atom_site_symmetry_multiplicity
  _atom_site_fract_x
  _atom_site_fract_y
  _atom_site_fract_z
  _atom_site_occupancy
  Na  Na1       1.0  0.43900856110241626  0.23571122482579665  0.9238562612123952  1.0000
  Na  Na2       1.0  0.14898020683995006  0.6003562748276268  0.5243885612262181  1.0000
  Na  Na3       1.0  0.9954033091370733  0.7033305182013873  0.11379247067198127  1.0000
  Na  Na4       1.0  0.4955362553200364  0.31339600048746563  0.411429176545174  1.0000
  C   C1        1.0  0.6252985026653864  0.8596160785278103  0.5565585594338575  1.0000
  C   C2        1.0  0.5079539516250826  0.2122387035246498  0.09422334868093407  1.0000
  C   C3        1.0  0.9734768874105874  0.871405771777011  0.3964963810805469  1.0000
  C   C4        1.0  0.04259137959719039  0.5996998884147966  0.95847442712541  1.0000
  C   C5        1.0  0.8209955996592493  0.4789361153002263  0.8265517695436804  1.0000
  C   C6        1.0  0.2398083589163944  0.22022935568031254  0.678986854450472  1.0000
  C   C7        1.0  0.6954825025183311  0.4926523882269267  0.2520847683217098  1.0000
  C   C8        1.0  0.1420619017917817  0.9719188399738055  0.2383943227412938  1.0000
  N   N1        1.0  0.7626996731231351  0.6350568679853484  0.5668959662780086  1.0000
  N   N2        1.0  0.7139070551977653  0.23583599855174597  0.11627554331577605  1.0000
  N   N3        1.0  0.17396002674662858  0.8166586858603586  0.42158342693509254  1.0000
  N   N4        1.0  0.8402611780302935  0.483195997907234  0.9671162155859598  1.0000
  O   O1        1.0  0.4380780292295483  0.06667760327287486  0.5568706638755362  1.0000
  O   O2        1.0  0.31566355685323283  0.356759221788693  0.07294937095929344  1.0000
  O   O3        1.0  0.7462095244374325  0.829508111594599  0.3983492544102935  1.0000
  O   O4        1.0  0.24413958492895738  0.7070791970276189  0.9487061302429851  1.0000
  O   O5        1.0  0.927447549695096  0.641484090212924  0.7858717469634986  1.0000
  O   O6        1.0  0.03923853123155485  0.3629120208793317  0.6893135680229395  1.0000
  O   O7        1.0  0.7122874058806793  0.22092656656779686  0.29136618099425704  1.0000
  O   O8        1.0  0.18363054792164335  0.18927878465464665  0.20058781358974495  1.0000
  O   O9        1.0  0.7733411147707066  0.22479173448522527  0.8589735967200578  1.0000
  O   O10       1.0  0.414370209843375  0.046903599498128834  0.6807674702127771  1.0000
  O   O11       1.0  0.6557387156789224  0.7142571579989231  0.2127836114354859  1.0000
  O   O12       1.0  0.1325566846105921  0.7358232127051814  0.280088109277218  1.0000
data_image164
_chemical_formula_structural       Na4C8N4O12
_chemical_formula_sum              "Na4 C8 N4 O12"
_cell_length_a       5.423166
_cell_length_b       3.6248270000000002
_cell_length_c       20.275782753631116
_cell_angle_alpha    88.79220736031418
_cell_angle_beta     90.0
_cell_angle_gamma    90.0

_space_group_name_H-M_alt    "P 1"
_space_group_IT_number       1

loop_
  _space_group_symop_operation_xyz
  'x, y, z'

loop_
  _atom_site_type_symbol
  _atom_site_label
  _atom_site_symmetry_multiplicity
  _atom_site_fract_x
  _atom_site_fract_y
  _atom_site_fract_z
  _atom_site_occupancy
  Na  Na1       1.0  0.6907541630163275  0.9689905941393548  0.9732768517040994  1.0000
  Na  Na2       1.0  0.19213025349313761  0.33745154520506304  0.5438057400742902  1.0000
  Na  Na3       1.0  0.9161388789277946  0.9860298085134207  0.08659062852183474  1.0000
  Na  Na4       1.0  0.482456507178584  0.5226936510580931  0.38648169236239105  1.0000
  C   C1        1.0  0.5936122769235133  0.7721644916787003  0.5762207456472206  1.0000
  C   C2        1.0  0.35408590517555516  0.36968246031280083  0.07013555043285535  1.0000
  C   C3        1.0  0.0020717314533267306  0.9894937391540299  0.4199534366480636  1.0000
  C   C4        1.0  0.10251502242970245  0.5714388172549589  0.9263079205168633  1.0000
  C   C5        1.0  0.9030378236455642  0.43742418540912276  0.7859630850794631  1.0000
  C   C6        1.0  0.29184669899452964  0.1740382243718157  0.7041668464742231  1.0000
  C   C7        1.0  0.5282108147781946  0.3796537566162669  0.2619188886772012  1.0000
  C   C8        1.0  0.14805499138033773  0.8957788388733319  0.2648002531472906  1.0000
  N   N1        1.0  0.7840522444117605  0.7126020950584557  0.5493034736065034  1.0000
  N   N2        1.0  0.5617455992188063  0.3377459983290878  0.05783427558207732  1.0000
  N   N3        1.0  0.21236780259708565  0.9720437783794815  0.42789845419296657  1.0000
  N   N4        1.0  0.9528264810754101  0.5596057671802313  0.9642250089355487  1.0000
  O   O1        1.0  0.4008250007084324  0.8772817769766229  0.5966845858972645  1.0000
  O   O2        1.0  0.13741725720278414  0.46611404609239226  0.08560167134951757  1.0000
  O   O3        1.0  0.78628068390381  0.9365337797259858  0.40921965171172  1.0000
  O   O4        1.0  0.26550139079289914  0.6149867185851692  0.8870072916701718  1.0000
  O   O5        1.0  0.91503594994533  0.6669569199576766  0.7439078302822022  1.0000
  O   O6        1.0  0.17448925076529398  0.30090519135425  0.662462217299932  1.0000
  O   O7        1.0  0.592726064802375  0.13518911691440805  0.3006974034433711  1.0000
  O   O8        1.0  0.13694114008790015  0.07220523641269083  0.20726242943557657  1.0000
  O   O9        1.0  0.8297812790686752  0.25516148477124867  0.826087736776014  1.0000
  O   O10       1.0  0.35266136282845695  0.13438794424674994  0.7574952597865383  1.0000
  O   O11       1.0  0.5658382119447043  0.5464294866782724  0.2125078306604555  1.0000
  O   O12       1.0  0.2103558261557705  0.8717400258422576  0.3221309007284671  1.0000
data_image165
_chemical_formula_structural       Na4C8N4O12
_chemical_formula_sum              "Na4 C8 N4 O12"
_cell_length_a       5.423166
_cell_length_b       3.6248270000000002
_cell_length_c       20.275782753631116
_cell_angle_alpha    88.79220736031418
_cell_angle_beta     90.0
_cell_angle_gamma    90.0

_space_group_name_H-M_alt    "P 1"
_space_group_IT_number       1

loop_
  _space_group_symop_operation_xyz
  'x, y, z'

loop_
  _atom_site_type_symbol
  _atom_site_label
  _atom_site_symmetry_multiplicity
  _atom_site_fract_x
  _atom_site_fract_y
  _atom_site_fract_z
  _atom_site_occupancy
  Na  Na1       1.0  0.7206128960333312  0.006160631248247395  0.9440451326474512  1.0000
  Na  Na2       1.0  0.23173325259355715  0.29721876937636726  0.5622673366969548  1.0000
  Na  Na3       1.0  0.8119965437426706  0.009289257402262496  0.07915155634793847  1.0000
  Na  Na4       1.0  0.503347049779842  0.711985711812765  0.42330243447331384  1.0000
  C   C1        1.0  0.7537796077231436  0.8476958812755445  0.5956572332508396  1.0000
  C   C2        1.0  0.32062210221165366  0.47137641492387283  0.0669627265511441  1.0000
  C   C3        1.0  0.9976284557300349  0.11409231310724266  0.4406953641390233  1.0000
  C   C4        1.0  0.22152136534436329  0.63887195295745  0.9139771031492689  1.0000
  C   C5        1.0  0.7509444381743973  0.4828262383335282  0.795690592297353  1.0000
  C   C6        1.0  0.27605532287593415  0.2643390196329254  0.7207443233156948  1.0000
  C   C7        1.0  0.558857559313654  0.1639176086535845  0.22629893936060685  1.0000
  C   C8        1.0  0.05256481367051391  0.6257076928267149  0.24817471306633385  1.0000
  N   N1        1.0  0.9596522925869219  0.945648415593815  0.5976366969806918  1.0000
  N   N2        1.0  0.5193583377746247  0.4914731266218171  0.038695496209356195  1.0000
  N   N3        1.0  0.187985454277815  0.013075831751488742  0.45417160922377264  1.0000
  N   N4        1.0  0.03324010336998917  0.6333899308608943  0.932421684597276  1.0000
  O   O1        1.0  0.5405125487024722  0.7751562227863495  0.578441991201671  1.0000
  O   O2        1.0  0.11273168039720556  0.4227570803245406  0.09021511770776258  1.0000
  O   O3        1.0  0.7794008517889315  0.19019593165163595  0.4261773208720839  1.0000
  O   O4        1.0  0.4408562141276642  0.6927323693091241  0.9072592435660493  1.0000
  O   O5        1.0  0.720100891186225  0.6380419473605801  0.7486620822616905  1.0000
  O   O6        1.0  0.19483562520251363  0.46848912253416897  0.685013910164257  1.0000
  O   O7        1.0  0.6020431149934934  0.1870403634550869  0.2827535945407733  1.0000
  O   O8        1.0  0.8748028195187098  0.7869252408536425  0.2205313173313297  1.0000
  O   O9        1.0  0.8490243899828223  0.2570799079409958  0.8341305469992374  1.0000
  O   O10       1.0  0.37197069031707164  0.02331155217677905  0.7516631640157575  1.0000
  O   O11       1.0  0.5266688272155784  0.25547432830935035  0.16903705233602917  1.0000
  O   O12       1.0  0.20173699826210387  0.4260919191379251  0.2704222535969323  1.0000
data_image166
_chemical_formula_structural       Na4C8N4O12
_chemical_formula_sum              "Na4 C8 N4 O12"
_cell_length_a       5.423166
_cell_length_b       3.6248270000000002
_cell_length_c       20.275782753631116
_cell_angle_alpha    88.79220736031418
_cell_angle_beta     90.0
_cell_angle_gamma    90.0

_space_group_name_H-M_alt    "P 1"
_space_group_IT_number       1

loop_
  _space_group_symop_operation_xyz
  'x, y, z'

loop_
  _atom_site_type_symbol
  _atom_site_label
  _atom_site_symmetry_multiplicity
  _atom_site_fract_x
  _atom_site_fract_y
  _atom_site_fract_z
  _atom_site_occupancy
  Na  Na1       1.0  0.5603075894597344  0.18594746756563474  0.9250813795785922  1.0000
  Na  Na2       1.0  0.3505966234601431  0.33917686816822945  0.5693368278610598  1.0000
  Na  Na3       1.0  0.8432596086502714  0.09307866815559618  0.05311991635249435  1.0000
  Na  Na4       1.0  0.5798384197266269  0.7062241011689188  0.4694056964285599  1.0000
  C   C1        1.0  0.8261173733542172  0.8321122994622785  0.5940666910528067  1.0000
  C   C2        1.0  0.37707208461977226  0.5983048850629067  0.07177460977408012  1.0000
  C   C3        1.0  0.09826996708986613  0.21688252865738988  0.46167400093243993  1.0000
  C   C4        1.0  0.1648724672565982  0.6697818236619697  0.9198523419426784  1.0000
  C   C5        1.0  0.6943165350235391  0.3404399030363394  0.7681843063229706  1.0000
  C   C6        1.0  0.20028609761441296  0.17100850765330367  0.7112662861425272  1.0000
  C   C7        1.0  0.512006873638815  0.10692173474148203  0.22092870987223362  1.0000
  C   C8        1.0  0.00868982680712227  0.5295637956484505  0.24910620695019167  1.0000
  N   N1        1.0  0.05045024574399653  0.801350140281405  0.6002525444430403  1.0000
  N   N2        1.0  0.598404350818065  0.6408041236599988  0.059391441281045676  1.0000
  N   N3        1.0  0.3161934194217768  0.3028500966982679  0.4650148826723395  1.0000
  N   N4        1.0  0.9533387595946423  0.5862063812717746  0.9223188220473677  1.0000
  O   O1        1.0  0.6199021118292137  0.910460392208703  0.5831772954463251  1.0000
  O   O2        1.0  0.1731955218533632  0.48397998691153266  0.0892112486649479  1.0000
  O   O3        1.0  0.9019054974751993  0.21376712525131092  0.4347488903669443  1.0000
  O   O4        1.0  0.37302415513629916  0.6912634365963566  0.9032925584883806  1.0000
  O   O5        1.0  0.7185228874660265  0.5945041504274342  0.7266257540159414  1.0000
  O   O6        1.0  0.3429546219537942  0.284982225243851  0.6726882384032535  1.0000
  O   O7        1.0  0.5922925098448656  0.2626641711468274  0.2665408148424017  1.0000
  O   O8        1.0  0.9879226261084596  0.6506102204352501  0.19776447332822902  1.0000
  O   O9        1.0  0.642391022776851  0.17222026115317224  0.8176211111044109  1.0000
  O   O10       1.0  0.10515142784469189  0.06926850821659647  0.7593203649365187  1.0000
  O   O11       1.0  0.45578578997635044  0.867157833909959  0.18569104477899814  1.0000
  O   O12       1.0  0.05105493378581965  0.3806211288760746  0.30322180131063264  1.0000
data_image167
_chemical_formula_structural       Na4C8N4O12
_chemical_formula_sum              "Na4 C8 N4 O12"
_cell_length_a       5.423166
_cell_length_b       3.6248270000000002
_cell_length_c       20.275782753631116
_cell_angle_alpha    88.79220736031418
_cell_angle_beta     90.0
_cell_angle_gamma    90.0

_space_group_name_H-M_alt    "P 1"
_space_group_IT_number       1

loop_
  _space_group_symop_operation_xyz
  'x, y, z'

loop_
  _atom_site_type_symbol
  _atom_site_label
  _atom_site_symmetry_multiplicity
  _atom_site_fract_x
  _atom_site_fract_y
  _atom_site_fract_z
  _atom_site_occupancy
  Na  Na1       1.0  0.5154734413259656  0.1873658421169948  0.9389447672032677  1.0000
  Na  Na2       1.0  0.4413773785432714  0.26265771534678417  0.5640754455014697  1.0000
  Na  Na3       1.0  0.9397582835432764  0.012801023233017128  0.024453830720890028  1.0000
  Na  Na4       1.0  0.7722616797399087  0.7974501399133329  0.4613778268886335  1.0000
  C   C1        1.0  0.9079735314584686  0.788543336110134  0.587577284117737  1.0000
  C   C2        1.0  0.40217898543774366  0.46545068305409965  0.054251746335921114  1.0000
  C   C3        1.0  0.2312844808780199  0.34057134838216774  0.44095898422885277  1.0000
  C   C4        1.0  0.055359511315409726  0.6914357130705069  0.9084856805016165  1.0000
  C   C5        1.0  0.6916542962695377  0.5252176998742382  0.7855795587831932  1.0000
  C   C6        1.0  0.29825260454721114  0.9513318974642656  0.7488726211647049  1.0000
  C   C7        1.0  0.3613619657640573  0.10004882450295283  0.22640757945928058  1.0000
  C   C8        1.0  0.825103266495746  0.5413129625957334  0.25565959516251663  1.0000
  N   N1        1.0  0.12418360784211731  0.8273843451629257  0.5929686414332066  1.0000
  N   N2        1.0  0.6148234192086932  0.5437290940964106  0.03987898996501382  1.0000
  N   N3        1.0  0.44449466023392326  0.23736385705662988  0.4429786034699336  1.0000
  N   N4        1.0  0.8397397057777629  0.8036345728522305  0.9007383845390814  1.0000
  O   O1        1.0  0.6731705726149023  0.7488718073996968  0.5898061376957912  1.0000
  O   O2        1.0  0.17895869121514119  0.4657401866247457  0.0562466524937435  1.0000
  O   O3        1.0  0.02195142610016454  0.3744533736722273  0.4493950335099691  1.0000
  O   O4        1.0  0.2748746527451402  0.6310659699339556  0.9078084212194996  1.0000
  O   O5        1.0  0.8339113967364215  0.558201329263929  0.7416449236355552  1.0000
  O   O6        1.0  0.3782510815279496  0.06892482017419965  0.7016878147088967  1.0000
  O   O7        1.0  0.28548336038261357  0.28526446343365164  0.27225577361569514  1.0000
  O   O8        1.0  0.8636849231577438  0.749059848978561  0.21288541977810033  1.0000
  O   O9        1.0  0.5144451457324224  0.43133918045483943  0.8274812327917053  1.0000
  O   O10       1.0  0.1624926640420652  0.9169680723561148  0.7971547327302921  1.0000
  O   O11       1.0  0.45663470933800193  0.08276607030761418  0.1751008545016676  1.0000
  O   O12       1.0  0.8308565845756214  0.3292089511683354  0.30333281742979923  1.0000
data_image168
_chemical_formula_structural       Na4C8N4O12
_chemical_formula_sum              "Na4 C8 N4 O12"
_cell_length_a       5.423166
_cell_length_b       3.6248270000000002
_cell_length_c       20.275782753631116
_cell_angle_alpha    88.79220736031418
_cell_angle_beta     90.0
_cell_angle_gamma    90.0

_space_group_name_H-M_alt    "P 1"
_space_group_IT_number       1

loop_
  _space_group_symop_operation_xyz
  'x, y, z'

loop_
  _atom_site_type_symbol
  _atom_site_label
  _atom_site_symmetry_multiplicity
  _atom_site_fract_x
  _atom_site_fract_y
  _atom_site_fract_z
  _atom_site_occupancy
  Na  Na1       1.0  0.500536122252122  0.2440255906042763  0.9195887246406516  1.0000
  Na  Na2       1.0  0.419395747246196  0.16561378687553985  0.5682615399362205  1.0000
  Na  Na3       1.0  0.8256683105032737  0.9858331595374292  0.05911490366484357  1.0000
  Na  Na4       1.0  0.8712003596620005  0.7759888492574647  0.4559708172724487  1.0000
  C   C1        1.0  0.9116660611858305  0.6319484468135605  0.5892527521451901  1.0000
  C   C2        1.0  0.34070304831385967  0.42270232857689516  0.07409214562288091  1.0000
  C   C3        1.0  0.31391640156081135  0.2985204542362947  0.4361477915434547  1.0000
  C   C4        1.0  0.019243918531337112  0.9569559043532425  0.9200227978208498  1.0000
  C   C5        1.0  0.7351613083434447  0.586632456555928  0.771355453901716  1.0000
  C   C6        1.0  0.341624976819499  0.9428446850427936  0.7126158047198822  1.0000
  C   C7        1.0  0.30006868525717406  0.2258603293210827  0.24890957836168248  1.0000
  C   C8        1.0  0.7975584791388566  0.5109021815217498  0.2594690010458117  1.0000
  N   N1        1.0  0.11935771590292196  0.6485954374576471  0.5644998244666048  1.0000
  N   N2        1.0  0.5437385670642694  0.4086854021191191  0.05104844245536655  1.0000
  N   N3        1.0  0.46772133156221196  0.48843629543037315  0.45695142951592477  1.0000
  N   N4        1.0  0.8317536970950672  0.09942909512820552  0.9300319778980085  1.0000
  O   O1        1.0  0.7251554166003116  0.4849637884895912  0.5989321423192501  1.0000
  O   O2        1.0  0.13025702325495345  0.5255739366145229  0.08739952779889415  1.0000
  O   O3        1.0  0.1645458909017965  0.0919504475644155  0.4250245667321747  1.0000
  O   O4        1.0  0.2307294095648833  0.8143626816797904  0.9219539419458425  1.0000
  O   O5        1.0  0.8760047797131332  0.433603823643506  0.726459891962442  1.0000
  O   O6        1.0  0.5046134275695748  0.9343972144177983  0.6773880411617755  1.0000
  O   O7        1.0  0.18037836898684964  0.060478968514203424  0.2842694674071658  1.0000
  O   O8        1.0  0.8932756973813751  0.6638097330951398  0.21305578014162135  1.0000
  O   O9        1.0  0.6773734352262177  0.7582831292658767  0.8183230724018646  1.0000
  O   O10       1.0  0.1521636784959055  0.9874969211586989  0.7425987435596186  1.0000
  O   O11       1.0  0.3874969187141276  0.3713961161065519  0.19520621713059438  1.0000
  O   O12       1.0  0.6904023728701125  0.3123947277724701  0.2983645783033794  1.0000
data_image169
_chemical_formula_structural       Na4C8N4O12
_chemical_formula_sum              "Na4 C8 N4 O12"
_cell_length_a       5.423166
_cell_length_b       3.6248270000000002
_cell_length_c       20.275782753631116
_cell_angle_alpha    88.79220736031418
_cell_angle_beta     90.0
_cell_angle_gamma    90.0

_space_group_name_H-M_alt    "P 1"
_space_group_IT_number       1

loop_
  _space_group_symop_operation_xyz
  'x, y, z'

loop_
  _atom_site_type_symbol
  _atom_site_label
  _atom_site_symmetry_multiplicity
  _atom_site_fract_x
  _atom_site_fract_y
  _atom_site_fract_z
  _atom_site_occupancy
  Na  Na1       1.0  0.5278400075278409  0.3208364858886832  0.8832909525824275  1.0000
  Na  Na2       1.0  0.5716224623069395  0.9644055247615703  0.5364752805467207  1.0000
  Na  Na3       1.0  0.6040084353003466  0.8142314043508941  0.08648025878091277  1.0000
  Na  Na4       1.0  0.9255688277322941  0.8105621139567876  0.4528113306764446  1.0000
  C   C1        1.0  0.9891341592227822  0.5009832297497728  0.5810282323721472  1.0000
  C   C2        1.0  0.1846712405460852  0.34544770015956816  0.059282735971160516  1.0000
  C   C3        1.0  0.4496352967309041  0.44780375352654067  0.4453375730962701  1.0000
  C   C4        1.0  0.04067680178041355  0.8176457566694881  0.9336065080627407  1.0000
  C   C5        1.0  0.7563571775059532  0.7181988186194372  0.7818555368503829  1.0000
  C   C6        1.0  0.2657364120130563  0.015393260181638224  0.7138141321801698  1.0000
  C   C7        1.0  0.29711162825764004  0.5275815962665551  0.2548729812135443  1.0000
  C   C8        1.0  0.7842342338195806  0.3232305082913265  0.2450343760371084  1.0000
  N   N1        1.0  0.10263925281681273  0.7765262253397768  0.5640389593121489  1.0000
  N   N2        1.0  0.385600972714922  0.26782726149139924  0.035398145481293275  1.0000
  N   N3        1.0  0.6429173679361082  0.42225301183729824  0.472675243046158  1.0000
  N   N4        1.0  0.869071814932721  0.6924477533799387  0.9666494853078866  1.0000
  O   O1        1.0  0.8176918293161932  0.34926017138365256  0.6066285641750319  1.0000
  O   O2        1.0  0.9679103656054665  0.36511551088424987  0.08022791653425121  1.0000
  O   O3        1.0  0.2642515004963022  0.4316264154385654  0.4143803349136965  1.0000
  O   O4        1.0  0.22375596790325814  0.8617799626404472  0.9031426544109149  1.0000
  O   O5        1.0  0.734738732273303  0.48607526628771547  0.7387376012095932  1.0000
  O   O6        1.0  0.38244005663531366  0.8722157930252661  0.6738716607716523  1.0000
  O   O7        1.0  0.22639368211616018  0.23144441732934073  0.2847752328669437  1.0000
  O   O8        1.0  0.8676555946723339  0.4931728836662819  0.19864442534486013  1.0000
  O   O9        1.0  0.7311553745652235  0.9092085204083693  0.829590393810138  1.0000
  O   O10       1.0  0.17049811282836158  0.14319871308865117  0.7608325659436918  1.0000
  O   O11       1.0  0.40608966482033565  0.7187875736867022  0.22220846561079835  1.0000
  O   O12       1.0  0.7621146398528953  0.2902883992527201  0.30568627518153096  1.0000
data_image170
_chemical_formula_structural       Na4C8N4O12
_chemical_formula_sum              "Na4 C8 N4 O12"
_cell_length_a       5.423166
_cell_length_b       3.6248270000000002
_cell_length_c       20.275782753631116
_cell_angle_alpha    88.79220736031418
_cell_angle_beta     90.0
_cell_angle_gamma    90.0

_space_group_name_H-M_alt    "P 1"
_space_group_IT_number       1

loop_
  _space_group_symop_operation_xyz
  'x, y, z'

loop_
  _atom_site_type_symbol
  _atom_site_label
  _atom_site_symmetry_multiplicity
  _atom_site_fract_x
  _atom_site_fract_y
  _atom_site_fract_z
  _atom_site_occupancy
  Na  Na1       1.0  0.4259764758781164  0.21592557766149678  0.9199702529365432  1.0000
  Na  Na2       1.0  0.5378867716967679  0.7944563721010162  0.5941355440060915  1.0000
  Na  Na3       1.0  0.667382035145795  0.7312888454969039  0.062392520466803804  1.0000
  Na  Na4       1.0  0.9937359191784908  0.12966993056515053  0.42822893471921375  1.0000
  C   C1        1.0  0.04179435644217302  0.4405379706618964  0.5774462912537126  1.0000
  C   C2        1.0  0.07603860979709698  0.21407289338264368  0.08266684538187752  1.0000
  C   C3        1.0  0.4521191317622968  0.4332326806732314  0.42702644251905414  1.0000
  C   C4        1.0  0.8845343201952909  0.6684244058604898  0.9072910394663849  1.0000
  C   C5        1.0  0.7525971921038601  0.7733914455402977  0.7653583369272307  1.0000
  C   C6        1.0  0.2979551738220869  0.2019342332282521  0.7113451590069422  1.0000
  C   C7        1.0  0.3687882070230383  0.5491221582213566  0.238310976990538  1.0000
  C   C8        1.0  0.8878436801711478  0.38086252393009756  0.28253818853112483  1.0000
  N   N1        1.0  0.21283186969397871  0.3499439123690712  0.5438145354319491  1.0000
  N   N2        1.0  0.28095337732375203  0.14735299330700835  0.07454212334417876  1.0000
  N   N3        1.0  0.6290585572336829  0.31533323879679864  0.4549537947794505  1.0000
  N   N4        1.0  0.7081379061813469  0.6703388280503593  0.9454210047526166  1.0000
  O   O1        1.0  0.8460833333404832  0.4647484942539485  0.6103613579652464  1.0000
  O   O2        1.0  0.8685460513370704  0.24464266478347074  0.09759706723381023  1.0000
  O   O3        1.0  0.2864726069662267  0.6496029749831767  0.40248873415537423  1.0000
  O   O4        1.0  0.07659013665939973  0.7339271717859419  0.877996133461153  1.0000
  O   O5        1.0  0.8476513862468827  0.6267010555527892  0.7219796004482605  1.0000
  O   O6        1.0  0.3927617137374435  0.17066726674367905  0.6628321975812169  1.0000
  O   O7        1.0  0.34489116473046955  0.37525892876336564  0.291318487603831  1.0000
  O   O8        1.0  0.8552612466500915  0.5056703113585886  0.22863189040016849  1.0000
  O   O9        1.0  0.6853553829953289  0.9614744354379101  0.8070409350452681  1.0000
  O   O10       1.0  0.2783331089390795  0.20030041942690513  0.7702770597842098  1.0000
  O   O11       1.0  0.386592792050856  0.7465656688617748  0.19462892762173933  1.0000
  O   O12       1.0  0.8429984023314046  0.1458144829525494  0.32335798570628477  1.0000
data_image171
_chemical_formula_structural       Na4C8N4O12
_chemical_formula_sum              "Na4 C8 N4 O12"
_cell_length_a       5.423166
_cell_length_b       3.6248270000000002
_cell_length_c       20.275782753631116
_cell_angle_alpha    88.79220736031418
_cell_angle_beta     90.0
_cell_angle_gamma    90.0

_space_group_name_H-M_alt    "P 1"
_space_group_IT_number       1

loop_
  _space_group_symop_operation_xyz
  'x, y, z'

loop_
  _atom_site_type_symbol
  _atom_site_label
  _atom_site_symmetry_multiplicity
  _atom_site_fract_x
  _atom_site_fract_y
  _atom_site_fract_z
  _atom_site_occupancy
  Na  Na1       1.0  0.3114988752734117  0.01939433648066302  0.9404591847773212  1.0000
  Na  Na2       1.0  0.4745156482434232  0.8058245857068841  0.5572032021060946  1.0000
  Na  Na3       1.0  0.636763526511181  0.6091355554890988  0.06949437501237275  1.0000
  Na  Na4       1.0  0.9776077724282001  0.11719568193840324  0.43336112659242976  1.0000
  C   C1        1.0  0.005641014570342382  0.38979538279840037  0.5740766647097437  1.0000
  C   C2        1.0  0.09773248412030422  0.28542428359496297  0.05444427604907687  1.0000
  C   C3        1.0  0.5030304497400395  0.7317522670657  0.4209497844839715  1.0000
  C   C4        1.0  0.8389131559825822  0.5194469482821507  0.9306805866984288  1.0000
  C   C5        1.0  0.7693775634056874  0.9665453108135043  0.7770653790331781  1.0000
  C   C6        1.0  0.3303700811685075  0.2822204262826853  0.7528547139388777  1.0000
  C   C7        1.0  0.4454726307737751  0.5266024378859964  0.20758050658428634  1.0000
  C   C8        1.0  0.8925429025006835  0.18085168421152176  0.2790031789354997  1.0000
  N   N1        1.0  0.19996041760654357  0.22761763893555073  0.5739414118603317  1.0000
  N   N2        1.0  0.2594453710030572  0.4241334720494718  0.019165574851363276  1.0000
  N   N3        1.0  0.7034056435390597  0.70719566990471  0.4435687906056174  1.0000
  N   N4        1.0  0.6470739468083069  0.5390408193972465  0.9606387460532386  1.0000
  O   O1        1.0  0.8032896344237624  0.5457189635064236  0.5745301886567045  1.0000
  O   O2        1.0  0.9404744358612852  0.15293429136479864  0.09044859641180802  1.0000
  O   O3        1.0  0.2941241786139899  0.7315100032280486  0.3997658760636898  1.0000
  O   O4        1.0  0.050008093783743934  0.49070841964979883  0.9073266472281003  1.0000
  O   O5        1.0  0.8068774988844631  0.7213598702242354  0.7387424738191252  1.0000
  O   O6        1.0  0.38630887786929846  0.31754614346548626  0.6960512425375698  1.0000
  O   O7        1.0  0.41300829165715863  0.26275348106350294  0.23784215392671718  1.0000
  O   O8        1.0  0.9446127671753942  0.38929298675867197  0.23911885791997867  1.0000
  O   O9        1.0  0.7092418789595863  0.11420616944669115  0.8243055727480116  1.0000
  O   O10       1.0  0.25056225827081535  0.3054510273952429  0.8068544012141285  1.0000
  O   O11       1.0  0.4616048702328103  0.7526980346959699  0.16529183683552526  1.0000
  O   O12       1.0  0.9044585442000572  0.9763843311416646  0.3299529330389981  1.0000
data_image172
_chemical_formula_structural       Na4C8N4O12
_chemical_formula_sum              "Na4 C8 N4 O12"
_cell_length_a       5.423166
_cell_length_b       3.6248270000000002
_cell_length_c       20.275782753631116
_cell_angle_alpha    88.79220736031418
_cell_angle_beta     90.0
_cell_angle_gamma    90.0

_space_group_name_H-M_alt    "P 1"
_space_group_IT_number       1

loop_
  _space_group_symop_operation_xyz
  'x, y, z'

loop_
  _atom_site_type_symbol
  _atom_site_label
  _atom_site_symmetry_multiplicity
  _atom_site_fract_x
  _atom_site_fract_y
  _atom_site_fract_z
  _atom_site_occupancy
  Na  Na1       1.0  0.34742848531614745  0.2926069658441728  0.9146518152045027  1.0000
  Na  Na2       1.0  0.47811752264344176  0.6776279133548647  0.5750771796187798  1.0000
  Na  Na3       1.0  0.6332514977251006  0.5224789114341843  0.07804365175917531  1.0000
  Na  Na4       1.0  0.0033693904946701103  0.16227029118008707  0.40008571468225085  1.0000
  C   C1        1.0  0.9261793991306804  0.14845008306863564  0.6123440992015102  1.0000
  C   C2        1.0  0.13526058286569898  0.1679749391741412  0.06537053874997989  1.0000
  C   C3        1.0  0.5215573844091352  0.5340034679685801  0.43265133328262323  1.0000
  C   C4        1.0  0.8144808581216989  0.7366380280687039  0.9350145917772147  1.0000
  C   C5        1.0  0.8076002640667274  0.9238154693760219  0.7602872619980531  1.0000
  C   C6        1.0  0.31167810256717043  0.4794483737470241  0.7338425067615483  1.0000
  C   C7        1.0  0.44588340020453043  0.7458970130008709  0.21714754406547118  1.0000
  C   C8        1.0  0.8998406835301194  0.060964401917627864  0.26203103670780026  1.0000
  N   N1        1.0  0.11902180436014571  0.06063061076101283  0.5963876938778918  1.0000
  N   N2        1.0  0.3019763857488713  0.251383504607428  0.027506322424201368  1.0000
  N   N3        1.0  0.7268686371182813  0.4819207060595976  0.41685297165893254  1.0000
  N   N4        1.0  0.6094010676213637  0.7981989788823156  0.9631004855483714  1.0000
  O   O1        1.0  0.7097785566055279  0.2296167371587549  0.6301697491379793  1.0000
  O   O2        1.0  0.9605894498681774  0.05844526732866395  0.1007337365031038  1.0000
  O   O3        1.0  0.3056909355747208  0.5242993197473864  0.43991588840450313  1.0000
  O   O4        1.0  0.008063754152733305  0.6695845514935028  0.913177815729576  1.0000
  O   O5        1.0  0.8687307333419297  0.7169817363687545  0.7228779981818257  1.0000
  O   O6        1.0  0.3657067197758568  0.4679462995363157  0.6752415072274462  1.0000
  O   O7        1.0  0.36150104310827785  0.5674116315946183  0.26016853378438765  1.0000
  O   O8        1.0  0.8243094492483264  0.2378165845763498  0.2201839154193086  1.0000
  O   O9        1.0  0.7621256999985726  0.17803557588110897  0.7928173903705503  1.0000
  O   O10       1.0  0.23747754391145337  0.4846051496229564  0.7881374768053648  1.0000
  O   O11       1.0  0.5545838590746562  0.868595661224837  0.17522506497595064  1.0000
  O   O12       1.0  0.9806750234149572  0.940958594131343  0.3160634816442978  1.0000
data_image173
_chemical_formula_structural       Na4C8N4O12
_chemical_formula_sum              "Na4 C8 N4 O12"
_cell_length_a       5.423166
_cell_length_b       3.6248270000000002
_cell_length_c       20.275782753631116
_cell_angle_alpha    88.79220736031418
_cell_angle_beta     90.0
_cell_angle_gamma    90.0

_space_group_name_H-M_alt    "P 1"
_space_group_IT_number       1

loop_
  _space_group_symop_operation_xyz
  'x, y, z'

loop_
  _atom_site_type_symbol
  _atom_site_label
  _atom_site_symmetry_multiplicity
  _atom_site_fract_x
  _atom_site_fract_y
  _atom_site_fract_z
  _atom_site_occupancy
  Na  Na1       1.0  0.3835994399930762  0.40577551918725363  0.9371444478728972  1.0000
  Na  Na2       1.0  0.5631145676927735  0.2697172817994417  0.5716203725601214  1.0000
  Na  Na3       1.0  0.5338194586586188  0.4499114944590628  0.0824578970459947  1.0000
  Na  Na4       1.0  0.9818710453619044  0.9998095781366287  0.4455121856715274  1.0000
  C   C1        1.0  0.05879626920637992  0.9276278745038676  0.5701055535191794  1.0000
  C   C2        1.0  0.12365910431619742  0.06934081006441106  0.0491901377485342  1.0000
  C   C3        1.0  0.5066345407921784  0.35780036233649115  0.4462764344192642  1.0000
  C   C4        1.0  0.91486865090539  0.906536299569286  0.9016670910262804  1.0000
  C   C5        1.0  0.8216178729080588  0.17764328446148525  0.766315023707556  1.0000
  C   C6        1.0  0.3363712570860886  0.6605943183746428  0.7389019092307881  1.0000
  C   C7        1.0  0.35295312665329226  0.7944958804086105  0.23085217430620533  1.0000
  C   C8        1.0  0.7508450797636803  0.12329863360009519  0.28648363505351365  1.0000
  N   N1        1.0  0.22780586458986024  0.08992805689458432  0.5515133139592184  1.0000
  N   N2        1.0  0.30990347747274594  0.8863198766960863  0.042161437972091376  1.0000
  N   N3        1.0  0.6762700229517729  0.4608163791176336  0.47970526953919185  1.0000
  N   N4        1.0  0.6940839974091417  0.9420643435807674  0.9156157331956029  1.0000
  O   O1        1.0  0.8497800270763474  0.8083811285742748  0.5861840048085858  1.0000
  O   O2        1.0  0.9374776396550474  0.2855033878323878  0.04108528749651241  1.0000
  O   O3        1.0  0.3060826122758502  0.315485206059833  0.41578005427570447  1.0000
  O   O4        1.0  0.13377959551238638  0.8454963304739231  0.8879882620577151  1.0000
  O   O5        1.0  0.8146810652633133  0.9951132038246628  0.7185240500847617  1.0000
  O   O6        1.0  0.3014158191473171  0.43786460714477027  0.6969604793765586  1.0000
  O   O7        1.0  0.3279602698690726  0.602431358224722  0.27713558710356045  1.0000
  O   O8        1.0  0.8651350979898534  0.24256806397866823  0.24004723439179837  1.0000
  O   O9        1.0  0.7713167353256629  0.40047913559882176  0.8074279631043363  1.0000
  O   O10       1.0  0.3343245606916807  0.89156738198764  0.779328966929979  1.0000
  O   O11       1.0  0.4363793246763978  0.9887097394256301  0.18436997953091927  1.0000
  O   O12       1.0  0.7272334815770495  0.915246131719088  0.3350014723785319  1.0000
data_image174
_chemical_formula_structural       Na4C8N4O12
_chemical_formula_sum              "Na4 C8 N4 O12"
_cell_length_a       5.423166
_cell_length_b       3.6248270000000002
_cell_length_c       20.275782753631116
_cell_angle_alpha    88.79220736031418
_cell_angle_beta     90.0
_cell_angle_gamma    90.0

_space_group_name_H-M_alt    "P 1"
_space_group_IT_number       1

loop_
  _space_group_symop_operation_xyz
  'x, y, z'

loop_
  _atom_site_type_symbol
  _atom_site_label
  _atom_site_symmetry_multiplicity
  _atom_site_fract_x
  _atom_site_fract_y
  _atom_site_fract_z
  _atom_site_occupancy
  Na  Na1       1.0  0.2689929189414735  0.4894125356889105  0.8981908095120585  1.0000
  Na  Na2       1.0  0.6790407465738789  0.13809840695670403  0.6215412645460322  1.0000
  Na  Na3       1.0  0.5955841582213842  0.13639692428598688  0.08119375260929887  1.0000
  Na  Na4       1.0  0.9497541067010835  0.17505355165987924  0.4583919273262445  1.0000
  C   C1        1.0  0.07098259949710026  0.7399735870734774  0.5700106743551896  1.0000
  C   C2        1.0  0.11961425128259884  0.03901226632881416  0.0399915015044634  1.0000
  C   C3        1.0  0.4278128231936722  0.3775434762628094  0.4317230626330061  1.0000
  C   C4        1.0  0.7936735996324764  0.889045569900625  0.9110636212266439  1.0000
  C   C5        1.0  0.860447780527102  0.43778512567114225  0.7507303901525432  1.0000
  C   C6        1.0  0.45530222036399315  0.6302098473840168  0.7207058862022263  1.0000
  C   C7        1.0  0.22699053632826643  0.799976440196891  0.23748970459780486  1.0000
  C   C8        1.0  0.825950477959218  0.19614755095979008  0.29210963112113236  1.0000
  N   N1        1.0  0.2545605920323041  0.9076338256968535  0.5456252003273304  1.0000
  N   N2        1.0  0.24340422148869867  0.7918180939717987  0.07173611553748005  1.0000
  N   N3        1.0  0.5397377098898135  0.42821460098973807  0.4795939055297568  1.0000
  N   N4        1.0  0.6110951642167817  0.7848355754261072  0.9375919094104535  1.0000
  O   O1        1.0  0.8624259390046299  0.6529157453121657  0.5844883378357726  1.0000
  O   O2        1.0  0.9707658805998359  0.2779296281647521  0.025388390209742484  1.0000
  O   O3        1.0  0.28874177866126494  0.19439551299949498  0.4006485878710325  1.0000
  O   O4        1.0  0.009530452137360479  0.9922293309177155  0.911698242639807  1.0000
  O   O5        1.0  0.9789852989424433  0.2634317531574273  0.7097911506013561  1.0000
  O   O6        1.0  0.3787099349833001  0.5132404480302255  0.6679347224997191  1.0000
  O   O7        1.0  0.30478900509557943  0.6252478589715722  0.2842571582161531  1.0000
  O   O8        1.0  0.8438465279363246  0.4161552689837801  0.24975858437211407  1.0000
  O   O9        1.0  0.8920585582696517  0.6578182519101925  0.7934876538892321  1.0000
  O   O10       1.0  0.47090537728966586  0.7957556839082003  0.7742293339235431  1.0000
  O   O11       1.0  0.21182786490486574  0.9734912821741668  0.18535707871063037  1.0000
  O   O12       1.0  0.8411622748106814  0.976096108748569  0.3376268129933841  1.0000
data_image175
_chemical_formula_structural       Na4C8N4O12
_chemical_formula_sum              "Na4 C8 N4 O12"
_cell_length_a       5.423166
_cell_length_b       3.6248270000000002
_cell_length_c       20.275782753631116
_cell_angle_alpha    88.79220736031418
_cell_angle_beta     90.0
_cell_angle_gamma    90.0

_space_group_name_H-M_alt    "P 1"
_space_group_IT_number       1

loop_
  _space_group_symop_operation_xyz
  'x, y, z'

loop_
  _atom_site_type_symbol
  _atom_site_label
  _atom_site_symmetry_multiplicity
  _atom_site_fract_x
  _atom_site_fract_y
  _atom_site_fract_z
  _atom_site_occupancy
  Na  Na1       1.0  0.14237004265399122  0.5320573342296997  0.9307334719981879  1.0000
  Na  Na2       1.0  0.6940309442583259  0.17272436269774988  0.5848772944572966  1.0000
  Na  Na3       1.0  0.6286003223621833  0.20254565415178635  0.14190197797003504  1.0000
  Na  Na4       1.0  0.9029590947690026  0.9180704669651472  0.46016052495948256  1.0000
  C   C1        1.0  0.1566751382886933  0.7586930594233917  0.5653440096464539  1.0000
  C   C2        1.0  0.11555139720726337  0.9516186683255075  0.06568273068615693  1.0000
  C   C3        1.0  0.45778035301394815  0.43597155025030876  0.4332413154647747  1.0000
  C   C4        1.0  0.6262075590858032  0.0523981641995821  0.8880224874055412  1.0000
  C   C5        1.0  0.9233410628526431  0.21989288722611855  0.7177685603977756  1.0000
  C   C6        1.0  0.3988885108789493  0.6369261230434926  0.7079812972330906  1.0000
  C   C7        1.0  0.35114094166735443  0.8169827554590444  0.251609504061713  1.0000
  C   C8        1.0  0.8790985053085909  0.34755352628831937  0.3015796344021824  1.0000
  N   N1        1.0  0.2907144069548481  0.02778355694049176  0.5516448967174478  1.0000
  N   N2        1.0  0.31949994956522676  0.8484486697160458  0.08737306674679157  1.0000
  N   N3        1.0  0.628010244310685  0.6201222808150488  0.4245805455371612  1.0000
  N   N4        1.0  0.4100482528976097  0.9762723518355518  0.8911421556033803  1.0000
  O   O1        1.0  0.9517628666195935  0.5463955116220258  0.5707914288209346  1.0000
  O   O2        1.0  0.9236857541986885  0.05401634608112538  0.042942253622662685  1.0000
  O   O3        1.0  0.25874801816833193  0.2550088559664987  0.44097739317768697  1.0000
  O   O4        1.0  0.8607850462641494  0.09801294019907436  0.9027706935733366  1.0000
  O   O5        1.0  0.8450610273991275  0.9572319990468992  0.684353772433621  1.0000
  O   O6        1.0  0.5236845677152702  0.4569221324688786  0.665920075771979  1.0000
  O   O7        1.0  0.4354660620570712  0.6087393534143009  0.29521477958404796  1.0000
  O   O8        1.0  0.8451111843279144  0.4889242047093672  0.24985437425302176  1.0000
  O   O9        1.0  0.9720243956204163  0.4201147828003027  0.7623669691883789  1.0000
  O   O10       1.0  0.4112157174220994  0.8572410406691073  0.7531021460042903  1.0000
  O   O11       1.0  0.2754671924150658  0.06552126390235168  0.21404463385377678  1.0000
  O   O12       1.0  0.8327787174693169  0.11909705097558043  0.3462627666509271  1.0000
data_image176
_chemical_formula_structural       Na4C8N4O12
_chemical_formula_sum              "Na4 C8 N4 O12"
_cell_length_a       5.423166
_cell_length_b       3.6248270000000002
_cell_length_c       20.275782753631116
_cell_angle_alpha    88.79220736031418
_cell_angle_beta     90.0
_cell_angle_gamma    90.0

_space_group_name_H-M_alt    "P 1"
_space_group_IT_number       1

loop_
  _space_group_symop_operation_xyz
  'x, y, z'

loop_
  _atom_site_type_symbol
  _atom_site_label
  _atom_site_symmetry_multiplicity
  _atom_site_fract_x
  _atom_site_fract_y
  _atom_site_fract_z
  _atom_site_occupancy
  Na  Na1       1.0  0.013370704383769971  0.6090773058408856  0.9787310473448623  1.0000
  Na  Na2       1.0  0.6911764445322048  0.323911804598734  0.5630358816738935  1.0000
  Na  Na3       1.0  0.8106530246093372  0.2991942161341329  0.1471019856021086  1.0000
  Na  Na4       1.0  0.9444651114395446  0.7846648790548474  0.3918273061951335  1.0000
  C   C1        1.0  0.15835978392659703  0.8245880325975674  0.5326629363470308  1.0000
  C   C2        1.0  0.24488335304024278  0.6818635307190408  0.09567190766479805  1.0000
  C   C3        1.0  0.42273243738169985  0.31722036947263677  0.44177199139358025  1.0000
  C   C4        1.0  0.4276852429207523  0.11381748039458639  0.9311205979598384  1.0000
  C   C5        1.0  0.8905341993273668  0.11113175825550803  0.7249141833770554  1.0000
  C   C6        1.0  0.40582774305918634  0.5535342313750882  0.7069723406980417  1.0000
  C   C7        1.0  0.4477957918873166  0.8544027883184035  0.2557047872705819  1.0000
  C   C8        1.0  0.8585997940926976  0.503154030668826  0.282170996003214  1.0000
  N   N1        1.0  0.37733533300616173  0.8889991208705655  0.5406210534655922  1.0000
  N   N2        1.0  0.4474753716500579  0.5876766871445818  0.09111103497631223  1.0000
  N   N3        1.0  0.6311483720614723  0.41590109698586675  0.4292285240978723  1.0000
  N   N4        1.0  0.23241275075834977  0.1970063709540093  0.9504869811505096  1.0000
  O   O1        1.0  0.9652677519463845  0.675852624336753  0.538913008279324  1.0000
  O   O2        1.0  0.023895028996698327  0.8557299140607773  0.09266493174488022  1.0000
  O   O3        1.0  0.18608739706362964  0.34144145059755404  0.4339556604573391  1.0000
  O   O4        1.0  0.6170783800335323  0.050482508990771446  0.9051451799355218  1.0000
  O   O5        1.0  0.815243072702921  0.9818934580010112  0.6724152309154175  1.0000
  O   O6        1.0  0.4108400587111203  0.39645215801455924  0.6551620257023661  1.0000
  O   O7        1.0  0.38375049024958174  0.699958563250884  0.3084185532414983  1.0000
  O   O8        1.0  0.8610963533047181  0.7369166611047147  0.23636853848982267  1.0000
  O   O9        1.0  0.9906608421228185  0.1956067542851101  0.7762990683828328  1.0000
  O   O10       1.0  0.36783575502321497  0.8735772644303856  0.7383153794641766  1.0000
  O   O11       1.0  0.49320276152018233  0.1180167338119045  0.22545004773358066  1.0000
  O   O12       1.0  0.8925932039862204  0.25571393358916183  0.31947526076916666  1.0000
data_image177
_chemical_formula_structural       Na4C8N4O12
_chemical_formula_sum              "Na4 C8 N4 O12"
_cell_length_a       5.423166
_cell_length_b       3.6248270000000002
_cell_length_c       20.275782753631116
_cell_angle_alpha    88.79220736031418
_cell_angle_beta     90.0
_cell_angle_gamma    90.0

_space_group_name_H-M_alt    "P 1"
_space_group_IT_number       1

loop_
  _space_group_symop_operation_xyz
  'x, y, z'

loop_
  _atom_site_type_symbol
  _atom_site_label
  _atom_site_symmetry_multiplicity
  _atom_site_fract_x
  _atom_site_fract_y
  _atom_site_fract_z
  _atom_site_occupancy
  Na  Na1       1.0  0.8378871854901895  0.5236605705285886  0.9466503685750157  1.0000
  Na  Na2       1.0  0.6291402105369751  0.4603471561149953  0.5465729713499614  1.0000
  Na  Na3       1.0  0.9448479564879304  0.09150383754290478  0.09894994494680895  1.0000
  Na  Na4       1.0  0.9678759198761412  0.7962517328087428  0.4326687238354196  1.0000
  C   C1        1.0  0.12014598039514396  0.9325781265471921  0.5374223735996616  1.0000
  C   C2        1.0  0.43788077201981934  0.5198537907761203  0.10242396395835773  1.0000
  C   C3        1.0  0.4254519490372086  0.3701656288259314  0.4007363615867806  1.0000
  C   C4        1.0  0.3466065387686066  0.18713573908902026  0.9839753980743365  1.0000
  C   C5        1.0  0.8413753569196273  0.05323771547710088  0.7287829668855794  1.0000
  C   C6        1.0  0.37497892351037154  0.6226128522088117  0.7123660151989588  1.0000
  C   C7        1.0  0.47301734881398255  0.05003886095654818  0.25582834488302725  1.0000
  C   C8        1.0  0.9453744604625981  0.44110400063827426  0.2610178113909761  1.0000
  N   N1        1.0  0.3188379287324627  0.8426060849282339  0.5141035363017621  1.0000
  N   N2        1.0  0.6622447831761835  0.5638676638282951  0.0791510441069776  1.0000
  N   N3        1.0  0.6277250804508883  0.3883651884116115  0.4272847588652128  1.0000
  N   N4        1.0  0.1409073884563521  0.3145903453682273  0.9926341175293344  1.0000
  O   O1        1.0  0.8991186504120974  0.972292061451816  0.5603782100347968  1.0000
  O   O2        1.0  0.2269924923800543  0.5778530692439885  0.12173670017781268  1.0000
  O   O3        1.0  0.1851915533047821  0.3066956751104737  0.3967444304840443  1.0000
  O   O4        1.0  0.5527668021440563  0.09384997429190145  0.9685504944973329  1.0000
  O   O5        1.0  0.932292059287257  0.8500542745713284  0.690510267108586  1.0000
  O   O6        1.0  0.41176702161344503  0.4232279234875529  0.6669723703174856  1.0000
  O   O7        1.0  0.3144789588338477  0.9469853214549963  0.2923590047005207  1.0000
  O   O8        1.0  0.9513130423385109  0.6263627659995492  0.21233664831123641  1.0000
  O   O9        1.0  0.7483510604053094  0.22664930948662843  0.7727109615231676  1.0000
  O   O10       1.0  0.30331219828454525  0.7640322640376742  0.7671392551558187  1.0000
  O   O11       1.0  0.5871374046271489  0.08531212104247292  0.20583869688182088  1.0000
  O   O12       1.0  0.8750685889830941  0.3314134037869598  0.31761110371553153  1.0000
data_image178
_chemical_formula_structural       Na4C8N4O12
_chemical_formula_sum              "Na4 C8 N4 O12"
_cell_length_a       5.423166
_cell_length_b       3.6248270000000002
_cell_length_c       20.275782753631116
_cell_angle_alpha    88.79220736031418
_cell_angle_beta     90.0
_cell_angle_gamma    90.0

_space_group_name_H-M_alt    "P 1"
_space_group_IT_number       1

loop_
  _space_group_symop_operation_xyz
  'x, y, z'

loop_
  _atom_site_type_symbol
  _atom_site_label
  _atom_site_symmetry_multiplicity
  _atom_site_fract_x
  _atom_site_fract_y
  _atom_site_fract_z
  _atom_site_occupancy
  Na  Na1       1.0  0.7329768153911411  0.5190681849467789  0.8978109665450075  1.0000
  Na  Na2       1.0  0.6163922734123146  0.44717195066484106  0.5776159841356856  1.0000
  Na  Na3       1.0  0.09568011353212746  0.17286540747150303  0.11462094993830921  1.0000
  Na  Na4       1.0  0.9912345177351726  0.8334898752756086  0.4312925292070489  1.0000
  C   C1        1.0  0.09443512293017306  0.897742513177554  0.5531341629786714  1.0000
  C   C2        1.0  0.5639839685264758  0.6809537349173642  0.07610128765396418  1.0000
  C   C3        1.0  0.4795652225614593  0.37214630235845236  0.42577097824017607  1.0000
  C   C4        1.0  0.21671388995413876  0.30286556662702324  0.9686912570363222  1.0000
  C   C5        1.0  0.7313124011351295  0.8883237672310216  0.7540285047855231  1.0000
  C   C6        1.0  0.24535086813479  0.48460220852664526  0.7294024541618108  1.0000
  C   C7        1.0  0.5351070247619619  0.9196023563330528  0.24243336713536776  1.0000
  C   C8        1.0  0.00573798594510988  0.4381527574716888  0.2218020636439303  1.0000
  N   N1        1.0  0.2921847948343472  0.0242965487753404  0.563531054667065  1.0000
  N   N2        1.0  0.7721604704305369  0.7491951006739341  0.05810013477394382  1.0000
  N   N3        1.0  0.6861425481818051  0.3203918441404694  0.44874832512928314  1.0000
  N   N4        1.0  0.01903754284460879  0.40414721033197987  0.9825937169775839  1.0000
  O   O1        1.0  0.8561500472018111  0.9449946197185164  0.5588887265809073  1.0000
  O   O2        1.0  0.38132423347156186  0.6618015620907554  0.108345990992182  1.0000
  O   O3        1.0  0.24073944690586457  0.3282581043323569  0.4275139220297108  1.0000
  O   O4        1.0  0.42387951099648385  0.2219964896238893  0.9546033467989834  1.0000
  O   O5        1.0  0.7649057175806719  0.06998590542627214  0.703915371010236  1.0000
  O   O6        1.0  0.31236290174242076  0.4615202541972576  0.680113514899378  1.0000
  O   O7        1.0  0.45720733476311565  0.7351860871164952  0.2864779483816868  1.0000
  O   O8        1.0  0.006333796364623501  0.621416539142554  0.16486428367810524  1.0000
  O   O9        1.0  0.7129264726685742  0.7921577751905482  0.8089131546526366  1.0000
  O   O10       1.0  0.15555223042671384  0.4972599250889429  0.7799672258288992  1.0000
  O   O11       1.0  0.5953154222709695  0.16387677404670176  0.20553522727568896  1.0000
  O   O12       1.0  0.0551485356999178  0.3638560566896025  0.2722848420348219  1.0000
data_image179
_chemical_formula_structural       Na4C8N4O12
_chemical_formula_sum              "Na4 C8 N4 O12"
_cell_length_a       5.423166
_cell_length_b       3.6248270000000002
_cell_length_c       20.275782753631116
_cell_angle_alpha    88.79220736031418
_cell_angle_beta     90.0
_cell_angle_gamma    90.0

_space_group_name_H-M_alt    "P 1"
_space_group_IT_number       1

loop_
  _space_group_symop_operation_xyz
  'x, y, z'

loop_
  _atom_site_type_symbol
  _atom_site_label
  _atom_site_symmetry_multiplicity
  _atom_site_fract_x
  _atom_site_fract_y
  _atom_site_fract_z
  _atom_site_occupancy
  Na  Na1       1.0  0.7366381529888677  0.49854718629270467  0.8840738050097615  1.0000
  Na  Na2       1.0  0.6351133965015566  0.34450864797085295  0.6248663422453596  1.0000
  Na  Na3       1.0  0.11472338541055849  0.41459032530055157  0.06118146678170008  1.0000
  Na  Na4       1.0  0.019268310220369234  0.8750896627787075  0.43992525990678816  1.0000
  C   C1        1.0  0.026301723360904115  0.06041275119033467  0.5691372540290224  1.0000
  C   C2        1.0  0.6928861095557541  0.8336889103726326  0.08056074052680806  1.0000
  C   C3        1.0  0.5238193947932064  0.40435353987113665  0.43191676808268314  1.0000
  C   C4        1.0  0.19990761000237534  0.09593076192639671  0.9353460691548963  1.0000
  C   C5        1.0  0.4784470996490946  0.8945777645512307  0.7663365403356305  1.0000
  C   C6        1.0  0.11450765629680659  0.4726178472949374  0.733042281390082  1.0000
  C   C7        1.0  0.6325977651585661  0.8930983439173802  0.2589956920804568  1.0000
  C   C8        1.0  0.1178353716194056  0.4960571050256586  0.22936891877126808  1.0000
  N   N1        1.0  0.22885842837648634  0.21179495182803257  0.5580008910651402  1.0000
  N   N2        1.0  0.875484974806839  0.9984634327134931  0.06509068817461894  1.0000
  N   N3        1.0  0.7469823938582008  0.35835738029401076  0.45511289623024104  1.0000
  N   N4        1.0  0.018479506598908735  0.15927631303042  0.963117091293085  1.0000
  O   O1        1.0  0.8570427291699514  0.8602566882798179  0.5993612298610118  1.0000
  O   O2        1.0  0.5299549376454733  0.6045175043313475  0.0747156347091471  1.0000
  O   O3        1.0  0.32808763209224767  0.47392593496145174  0.3989104247070548  1.0000
  O   O4        1.0  0.34088070184184793  0.991309875258249  0.8960902201788885  1.0000
  O   O5        1.0  0.605024356278413  0.03931553403446353  0.7259709455505343  1.0000
  O   O6        1.0  0.18968877240230064  0.6414749626875289  0.6806585004749877  1.0000
  O   O7        1.0  0.7488252590269163  0.8017386374291917  0.30935403641078424  1.0000
  O   O8        1.0  0.03979425598714048  0.6782258974969791  0.19042394754471695  1.0000
  O   O9        1.0  0.4503711530769373  0.6311810608187249  0.809337921214637  1.0000
  O   O10       1.0  0.05434698462802512  0.26011350863380067  0.7778643505708958  1.0000
  O   O11       1.0  0.5483963734043452  0.034284934323215895  0.21161613017980693  1.0000
  O   O12       1.0  0.14554587563810759  0.2838700358333901  0.2778627054630461  1.0000
data_image180
_chemical_formula_structural       Na4C8N4O12
_chemical_formula_sum              "Na4 C8 N4 O12"
_cell_length_a       5.423166
_cell_length_b       3.6248270000000002
_cell_length_c       20.275782753631116
_cell_angle_alpha    88.79220736031418
_cell_angle_beta     90.0
_cell_angle_gamma    90.0

_space_group_name_H-M_alt    "P 1"
_space_group_IT_number       1

loop_
  _space_group_symop_operation_xyz
  'x, y, z'

loop_
  _atom_site_type_symbol
  _atom_site_label
  _atom_site_symmetry_multiplicity
  _atom_site_fract_x
  _atom_site_fract_y
  _atom_site_fract_z
  _atom_site_occupancy
  Na  Na1       1.0  0.7022394822077151  0.8389756275844753  0.8971692738735518  1.0000
  Na  Na2       1.0  0.5508550889535653  0.49527190892005407  0.5750951123394252  1.0000
  Na  Na3       1.0  0.09683179107145845  0.579916494904481  0.04298006001682796  1.0000
  Na  Na4       1.0  0.9865256907061808  0.02251066205969865  0.43667396096024386  1.0000
  C   C1        1.0  0.10030919605756572  0.9914837047284943  0.5687167170264892  1.0000
  C   C2        1.0  0.6409210671872305  0.7231009308827427  0.07878144619322192  1.0000
  C   C3        1.0  0.47612700465435465  0.4075020256628936  0.4316967915844709  1.0000
  C   C4        1.0  0.18144182157261235  0.07420090475552721  0.9384758576798584  1.0000
  C   C5        1.0  0.4898784938858196  0.7209465038679159  0.7615557993541692  1.0000
  C   C6        1.0  0.07399017369946304  0.39525126017952505  0.707012162986114  1.0000
  C   C7        1.0  0.7099450247031767  0.9562002365233845  0.26977409562466304  1.0000
  C   C8        1.0  0.20767608011452254  0.4239895451272213  0.2617041493539952  1.0000
  N   N1        1.0  0.3086354230632321  0.8973465643849794  0.5558988857027182  1.0000
  N   N2        1.0  0.839772066104709  0.8997297009529797  0.07530160143859566  1.0000
  N   N3        1.0  0.6646965734090782  0.3194590557377639  0.4121744627326014  1.0000
  N   N4        1.0  0.017997369152968457  0.2586797584377436  0.9175617998274043  1.0000
  O   O1        1.0  0.8823237814962652  0.003349922487208075  0.5930796061624529  1.0000
  O   O2        1.0  0.4730504354119877  0.5118062500821292  0.08112949430816996  1.0000
  O   O3        1.0  0.2726581717564416  0.5259828004932436  0.44168662913487255  1.0000
  O   O4        1.0  0.36504573714012556  0.930766405332808  0.9643337078003033  1.0000
  O   O5        1.0  0.5417499539968372  0.9356157807618795  0.7203007778597558  1.0000
  O   O6        1.0  0.297092040782458  0.3623244636298666  0.6879772318101931  1.0000
  O   O7        1.0  0.7948281020550441  0.7086994422444273  0.31058609550486405  1.0000
  O   O8        1.0  0.19326770002603322  0.5385840534643233  0.20841448005089575  1.0000
  O   O9        1.0  0.5017387471937631  0.5467266784111549  0.8151260965962435  1.0000
  O   O10       1.0  0.8891648688317404  0.45588779369033294  0.73439002023061  1.0000
  O   O11       1.0  0.6034764473883382  0.04742253313706714  0.22390130884735138  1.0000
  O   O12       1.0  0.2301180822316813  0.2268747011817236  0.3160366490162872  1.0000
data_image181
_chemical_formula_structural       Na4C8N4O12
_chemical_formula_sum              "Na4 C8 N4 O12"
_cell_length_a       5.423166
_cell_length_b       3.6248270000000002
_cell_length_c       20.275782753631116
_cell_angle_alpha    88.79220736031418
_cell_angle_beta     90.0
_cell_angle_gamma    90.0

_space_group_name_H-M_alt    "P 1"
_space_group_IT_number       1

loop_
  _space_group_symop_operation_xyz
  'x, y, z'

loop_
  _atom_site_type_symbol
  _atom_site_label
  _atom_site_symmetry_multiplicity
  _atom_site_fract_x
  _atom_site_fract_y
  _atom_site_fract_z
  _atom_site_occupancy
  Na  Na1       1.0  0.6845221380401154  0.11418381152164603  0.8991483600571999  1.0000
  Na  Na2       1.0  0.6548948287985912  0.40354394603196336  0.5328279058414609  1.0000
  Na  Na3       1.0  0.2126608052448764  0.16371538785546064  0.08791296539125738  1.0000
  Na  Na4       1.0  0.9989242459698194  0.044631761999172515  0.4233170419565372  1.0000
  C   C1        1.0  0.01090838484488941  0.9296625276819032  0.577833019797587  1.0000
  C   C2        1.0  0.6890086612405625  0.4968256438755445  0.054019498697581936  1.0000
  C   C3        1.0  0.45717589559640803  0.7024764702263764  0.423188219383848  1.0000
  C   C4        1.0  0.15086559419438816  0.19297212718421486  0.9436650863947035  1.0000
  C   C5        1.0  0.41373087029831157  0.7755782197066332  0.790925170897555  1.0000
  C   C6        1.0  0.04944022157014927  0.3206369679653758  0.7191563319362032  1.0000
  C   C7        1.0  0.7621815012289903  0.9858109765948603  0.25082521218651177  1.0000
  C   C8        1.0  0.24412019232374305  0.2667980586620182  0.24041636270996125  1.0000
  N   N1        1.0  0.22765954347650333  0.033979656113175126  0.5629800819588163  1.0000
  N   N2        1.0  0.8165574236515615  0.6578645885055361  0.014705224500449088  1.0000
  N   N3        1.0  0.6441470751744445  0.8237054739210956  0.44809897039289037  1.0000
  N   N4        1.0  0.9897709010640321  0.432377929800178  0.9324662728766114  1.0000
  O   O1        1.0  0.8065436788964314  0.874890982145146  0.6067798116965711  1.0000
  O   O2        1.0  0.5906273935939785  0.3592012307464194  0.10235059694841708  1.0000
  O   O3        1.0  0.25481187192487265  0.5574425615668801  0.4229820167260071  1.0000
  O   O4        1.0  0.2893627398504931  0.9450168267020491  0.957071687022803  1.0000
  O   O5        1.0  0.41052295059931376  0.9327366801421224  0.7371301177946823  1.0000
  O   O6        1.0  0.13957842837162326  0.4528332609694914  0.6768034790530105  1.0000
  O   O7        1.0  0.855958671551355  0.8197832876737736  0.29927876724026486  1.0000
  O   O8        1.0  0.17347601248392808  0.3922679763964174  0.18802363803366198  1.0000
  O   O9        1.0  0.4330034984481834  0.567632958429181  0.839680415080025  1.0000
  O   O10       1.0  0.9773367295256798  0.2643975100294613  0.7792990403195081  1.0000
  O   O11       1.0  0.6965118715614721  0.26771473179062266  0.2222609220388339  1.0000
  O   O12       1.0  0.31841185377686365  0.17880850415096905  0.29322805716607886  1.0000
data_image182
_chemical_formula_structural       Na4C8N4O12
_chemical_formula_sum              "Na4 C8 N4 O12"
_cell_length_a       5.423166
_cell_length_b       3.6248270000000002
_cell_length_c       20.275782753631116
_cell_angle_alpha    88.79220736031418
_cell_angle_beta     90.0
_cell_angle_gamma    90.0

_space_group_name_H-M_alt    "P 1"
_space_group_IT_number       1

loop_
  _space_group_symop_operation_xyz
  'x, y, z'

loop_
  _atom_site_type_symbol
  _atom_site_label
  _atom_site_symmetry_multiplicity
  _atom_site_fract_x
  _atom_site_fract_y
  _atom_site_fract_z
  _atom_site_occupancy
  Na  Na1       1.0  0.7115752943558611  0.9068577577640915  0.9262052212638304  1.0000
  Na  Na2       1.0  0.6249649069306047  0.3800567301426791  0.5279071515471646  1.0000
  Na  Na3       1.0  0.3090943137856541  0.6583207279513461  0.07259636665657626  1.0000
  Na  Na4       1.0  0.9414141346867853  0.248837711037333  0.409658847611736  1.0000
  C   C1        1.0  0.9342358795471767  0.9097485149991525  0.5548464239771561  1.0000
  C   C2        1.0  0.7145716870388792  0.5963009345220853  0.061058246661297666  1.0000
  C   C3        1.0  0.4791756182595126  0.7737982811515218  0.4318966250702314  1.0000
  C   C4        1.0  0.19786659711000398  0.20645139306645266  0.943206058351512  1.0000
  C   C5        1.0  0.5019300133353002  0.8749991381936817  0.787776280409057  1.0000
  C   C6        1.0  0.9711661134774827  0.3857987325022405  0.7226693753842771  1.0000
  C   C7        1.0  0.8378994374560266  0.9302879166740506  0.27914997356025906  1.0000
  C   C8        1.0  0.27315021613462886  0.44802905686453975  0.23886185617491842  1.0000
  N   N1        1.0  0.08513373577076012  0.0613460339581993  0.5172068305486949  1.0000
  N   N2        1.0  0.874909885968138  0.8016972163464038  0.038364353021023145  1.0000
  N   N3        1.0  0.6855052002485056  0.8751236621222969  0.44645812575778426  1.0000
  N   N4        1.0  0.0686772696577218  0.20394043360291025  0.8956938194523607  1.0000
  O   O1        1.0  0.7457021980062672  0.7999600612471429  0.5896875881320105  1.0000
  O   O2        1.0  0.5831507842417196  0.3296046288777521  0.08505649158453754  1.0000
  O   O3        1.0  0.246392121547794  0.6318139390940254  0.4262395149238674  1.0000
  O   O4        1.0  0.32024742425557484  0.1242146669002051  0.9954812261210813  1.0000
  O   O5        1.0  0.41831315118445567  0.054171480323286225  0.7424094762580385  1.0000
  O   O6        1.0  0.9187288653376642  0.3845882957282236  0.6662815128265184  1.0000
  O   O7        1.0  0.8488398962493983  0.7396632832858656  0.32710778783672956  1.0000
  O   O8        1.0  0.13863075187789797  0.36203386551036043  0.19525149835052016  1.0000
  O   O9        1.0  0.5356079644112672  0.7088270802255678  0.8406150901307787  1.0000
  O   O10       1.0  0.9054222692959648  0.3266080088823462  0.7758051262541155  1.0000
  O   O11       1.0  0.7529912547662913  0.09997619347674903  0.2335390924489525  1.0000
  O   O12       1.0  0.35051548417699896  0.4806576136280807  0.2954464149501572  1.0000
data_image183
_chemical_formula_structural       Na4C8N4O12
_chemical_formula_sum              "Na4 C8 N4 O12"
_cell_length_a       5.423166
_cell_length_b       3.6248270000000002
_cell_length_c       20.275782753631116
_cell_angle_alpha    88.79220736031418
_cell_angle_beta     90.0
_cell_angle_gamma    90.0

_space_group_name_H-M_alt    "P 1"
_space_group_IT_number       1

loop_
  _space_group_symop_operation_xyz
  'x, y, z'

loop_
  _atom_site_type_symbol
  _atom_site_label
  _atom_site_symmetry_multiplicity
  _atom_site_fract_x
  _atom_site_fract_y
  _atom_site_fract_z
  _atom_site_occupancy
  Na  Na1       1.0  0.8245951700103307  0.7782899469883691  0.9174827224313801  1.0000
  Na  Na2       1.0  0.41313143305593236  0.23777425341492392  0.5459471777312368  1.0000
  Na  Na3       1.0  0.3596436735313866  0.7726835859006935  0.074874012197278  1.0000
  Na  Na4       1.0  0.8926189466356664  0.2296030261320121  0.4503138551970752  1.0000
  C   C1        1.0  0.8809493453819545  0.9640412436350074  0.5807140109608205  1.0000
  C   C2        1.0  0.873747124771058  0.41231418511507756  0.06649774413294529  1.0000
  C   C3        1.0  0.3861449374823436  0.7952132945739034  0.4289356748807426  1.0000
  C   C4        1.0  0.2074689372662193  0.29215492522958186  0.9377953979163793  1.0000
  C   C5        1.0  0.4124820099813874  0.7721556809427974  0.8248999334505241  1.0000
  C   C6        1.0  0.9885084734709575  0.43306395121269636  0.7094538582020885  1.0000
  C   C7        1.0  0.822756716464353  0.9889111916092099  0.2515754956808053  1.0000
  C   C8        1.0  0.303507173005535  0.46526503076999526  0.20780754296083379  1.0000
  N   N1        1.0  0.05229160242926702  0.044022266723257736  0.5460770173061913  1.0000
  N   N2        1.0  0.9751155631019486  0.6279447088456092  0.031458054549019954  1.0000
  N   N3        1.0  0.5924650721345612  0.8042617790588666  0.4467043855624906  1.0000
  N   N4        1.0  0.023262170449710462  0.31377234060406334  0.9059265220731674  1.0000
  O   O1        1.0  0.6815824588057626  0.8141824865306364  0.5991275457832597  1.0000
  O   O2        1.0  0.7148591142779118  0.24859752932196133  0.10067738651563496  1.0000
  O   O3        1.0  0.17066577723466514  0.7280848707853944  0.407864998131803  1.0000
  O   O4        1.0  0.3865983212084593  0.29395807432492616  0.9723910968656562  1.0000
  O   O5        1.0  0.3150828706447365  0.00024873037604145054  0.7939009140981835  1.0000
  O   O6        1.0  0.12545664018709424  0.32283157728785383  0.6710821918949353  1.0000
  O   O7        1.0  0.979226680458791  0.9486468766369385  0.2936992602738214  1.0000
  O   O8        1.0  0.2571901221665718  0.3252048596836232  0.15437108865857388  1.0000
  O   O9        1.0  0.5222385333849766  0.5204378356886878  0.8512634474414488  1.0000
  O   O10       1.0  0.860994544891442  0.5531935726847563  0.7520723409437251  1.0000
  O   O11       1.0  0.6513823868654431  0.09497675556705314  0.2185069886670303  1.0000
  O   O12       1.0  0.3291180744336425  0.5845398008443601  0.2640204905524992  1.0000
data_image184
_chemical_formula_structural       Na4C8N4O12
_chemical_formula_sum              "Na4 C8 N4 O12"
_cell_length_a       5.423166
_cell_length_b       3.6248270000000002
_cell_length_c       20.275782753631116
_cell_angle_alpha    88.79220736031418
_cell_angle_beta     90.0
_cell_angle_gamma    90.0

_space_group_name_H-M_alt    "P 1"
_space_group_IT_number       1

loop_
  _space_group_symop_operation_xyz
  'x, y, z'

loop_
  _atom_site_type_symbol
  _atom_site_label
  _atom_site_symmetry_multiplicity
  _atom_site_fract_x
  _atom_site_fract_y
  _atom_site_fract_z
  _atom_site_occupancy
  Na  Na1       1.0  0.7483068377593216  0.8140910508648798  0.9485275077953441  1.0000
  Na  Na2       1.0  0.33415438004758335  0.29700239481486507  0.5789258105428046  1.0000
  Na  Na3       1.0  0.3934822189150733  0.9397973289803838  0.08193420387249793  1.0000
  Na  Na4       1.0  0.8914563846066228  0.3659332538685911  0.41194634706180294  1.0000
  C   C1        1.0  0.7534450772844957  0.6249754803126595  0.5641698031762131  1.0000
  C   C2        1.0  0.8722989887194795  0.554990390489652  0.0693163275542732  1.0000
  C   C3        1.0  0.46596040198352084  0.7225980404248911  0.39673678991225064  1.0000
  C   C4        1.0  0.2692835031014762  0.2645901712680012  0.9470195223585318  1.0000
  C   C5        1.0  0.4435536087154841  0.4825357970460784  0.8160223765029363  1.0000
  C   C6        1.0  0.9057074547966244  0.6278202460651603  0.7019856182267655  1.0000
  C   C7        1.0  0.7995035856293737  0.0036212874072840185  0.24517622094552366  1.0000
  C   C8        1.0  0.33930349005201244  0.4336967571783594  0.23553113263343192  1.0000
  N   N1        1.0  0.9681177289216494  0.4931445070739825  0.552179798207864  1.0000
  N   N2        1.0  0.024612009964742568  0.7569826401367459  0.04496467316216779  1.0000
  N   N3        1.0  0.649305431888989  0.8885311773096727  0.38102855053024437  1.0000
  N   N4        1.0  0.07191636463815132  0.319184104991209  0.9258877106706326  1.0000
  O   O1        1.0  0.6184414420632287  0.8341320268753273  0.5956690529755126  1.0000
  O   O2        1.0  0.6793963122972826  0.46928691933691513  0.09014367873815154  1.0000
  O   O3        1.0  0.29650056514122136  0.6059057520755453  0.42584248618318427  1.0000
  O   O4        1.0  0.4577875792657915  0.13258660752340257  0.9683433681739411  1.0000
  O   O5        1.0  0.24090195456960983  0.5498121542143686  0.8032862714204232  1.0000
  O   O6        1.0  0.04576015323779892  0.40815842216134035  0.6950270165905054  1.0000
  O   O7        1.0  0.8602673173342897  0.14798591929593086  0.29944338208445387  1.0000
  O   O8        1.0  0.2221868236244966  0.4255812744625571  0.1841094729070552  1.0000
  O   O9        1.0  0.6670837572930834  0.5022131510013268  0.8224661760564167  1.0000
  O   O10       1.0  0.8065142850791183  0.888483596166016  0.7129956226410417  1.0000
  O   O11       1.0  0.8042447889450817  0.9194028199322277  0.19053689184748257  1.0000
  O   O12       1.0  0.42865218368209934  0.5748295137026775  0.29068038452412404  1.0000
data_image185
_chemical_formula_structural       Na4C8N4O12
_chemical_formula_sum              "Na4 C8 N4 O12"
_cell_length_a       5.423166
_cell_length_b       3.6248270000000002
_cell_length_c       20.275782753631116
_cell_angle_alpha    88.79220736031418
_cell_angle_beta     90.0
_cell_angle_gamma    90.0

_space_group_name_H-M_alt    "P 1"
_space_group_IT_number       1

loop_
  _space_group_symop_operation_xyz
  'x, y, z'

loop_
  _atom_site_type_symbol
  _atom_site_label
  _atom_site_symmetry_multiplicity
  _atom_site_fract_x
  _atom_site_fract_y
  _atom_site_fract_z
  _atom_site_occupancy
  Na  Na1       1.0  0.7297539735274954  0.7282281792148237  0.9322065060341671  1.0000
  Na  Na2       1.0  0.2573721411946308  0.2331080550444445  0.6053549502757964  1.0000
  Na  Na3       1.0  0.20353978912164106  0.11897181551866927  0.08778407597485585  1.0000
  Na  Na4       1.0  0.9982447585699269  0.11586595518061493  0.41843230527687814  1.0000
  C   C1        1.0  0.7318115390639236  0.6510494175036357  0.5286096359172537  1.0000
  C   C2        1.0  0.746876870787077  0.6442667390400696  0.07095653280922787  1.0000
  C   C3        1.0  0.5311927703227544  0.5416472820835327  0.4133486631997103  1.0000
  C   C4        1.0  0.21688400623764337  0.22887287499558262  0.939703195308804  1.0000
  C   C5        1.0  0.5461308457691514  0.3442462600424503  0.819126863848517  1.0000
  C   C6        1.0  0.8478292013965617  0.021247931035307754  0.6894830157387449  1.0000
  C   C7        1.0  0.9694731434339704  0.12317891621367463  0.265810159729533  1.0000
  C   C8        1.0  0.4329030770773712  0.5922433470411241  0.22636319630506965  1.0000
  N   N1        1.0  0.9307131710180218  0.4575762634389766  0.5349963587427977  1.0000
  N   N2        1.0  0.8956893201516103  0.4453345067046186  0.052791402313099756  1.0000
  N   N3        1.0  0.7240024662291931  0.7214258790401908  0.43102465985495075  1.0000
  N   N4        1.0  0.024033474571116153  0.2832724860722524  0.9144246192679025  1.0000
  O   O1        1.0  0.5586007549793064  0.7342420245641115  0.5701667032776978  1.0000
  O   O2        1.0  0.5540218041385075  0.7762433147431556  0.08916925657473085  1.0000
  O   O3        1.0  0.3948131714308276  0.3187361227796308  0.4083771227945667  1.0000
  O   O4        1.0  0.3968884710826258  0.11914204577354237  0.9607359082057457  1.0000
  O   O5        1.0  0.3981293013034477  0.11333428257662703  0.8100075496775242  1.0000
  O   O6        1.0  0.06046899209458867  0.9456338536277249  0.6831753205377186  1.0000
  O   O7        1.0  0.9533377059108274  0.22817573565148752  0.31721947191058303  1.0000
  O   O8        1.0  0.31199870421302234  0.3625602521289186  0.1908395365985581  1.0000
  O   O9        1.0  0.7100212157180025  0.5708144523109069  0.8188122494435417  1.0000
  O   O10       1.0  0.6321307616642229  0.05654252080036226  0.701282878662136  1.0000
  O   O11       1.0  0.907954990503277  0.9531899924050946  0.2145852883720462  1.0000
  O   O12       1.0  0.49603276306352073  0.7588634714756619  0.27365104944511  1.0000
data_image186
_chemical_formula_structural       Na4C8N4O12
_chemical_formula_sum              "Na4 C8 N4 O12"
_cell_length_a       5.423166
_cell_length_b       3.6248270000000002
_cell_length_c       20.275782753631116
_cell_angle_alpha    88.79220736031418
_cell_angle_beta     90.0
_cell_angle_gamma    90.0

_space_group_name_H-M_alt    "P 1"
_space_group_IT_number       1

loop_
  _space_group_symop_operation_xyz
  'x, y, z'

loop_
  _atom_site_type_symbol
  _atom_site_label
  _atom_site_symmetry_multiplicity
  _atom_site_fract_x
  _atom_site_fract_y
  _atom_site_fract_z
  _atom_site_occupancy
  Na  Na1       1.0  0.6894248522834212  0.5822862867265004  0.9431920945348597  1.0000
  Na  Na2       1.0  0.324836736672657  0.9728822969999698  0.5731780175094087  1.0000
  Na  Na3       1.0  0.10771788470868393  0.060715848172977226  0.08899388907004492  1.0000
  Na  Na4       1.0  0.17389714133426848  0.8048222831738605  0.45459038616000835  1.0000
  C   C1        1.0  0.7895254123835596  0.6088674598513844  0.5714373006400962  1.0000
  C   C2        1.0  0.6464510895529374  0.7809200548129787  0.06811165478510062  1.0000
  C   C3        1.0  0.5177041885477704  0.4812864246456936  0.41643833113558715  1.0000
  C   C4        1.0  0.10525689255836923  0.1109633811544235  0.9320981350051277  1.0000
  C   C5        1.0  0.5435786419865933  0.3291898996404945  0.8022068557321559  1.0000
  C   C6        1.0  0.7056490245090626  0.10374368796449884  0.6786922653559895  1.0000
  C   C7        1.0  0.9931940156614686  0.08298988640056794  0.27150641039720214  1.0000
  C   C8        1.0  0.5741294171476776  0.8593481074646421  0.23261622100948762  1.0000
  N   N1        1.0  0.9955132332528956  0.6940438789909291  0.5625438161386368  1.0000
  N   N2        1.0  0.8272948312624627  0.6047457513797163  0.06766193190807579  1.0000
  N   N3        1.0  0.6350930633075864  0.6595564133922243  0.4567299979472156  1.0000
  N   N4        1.0  0.9123414675826972  0.9956014697276265  0.9176039399289242  1.0000
  O   O1        1.0  0.5761017306239584  0.42390247453350205  0.565368098023314  1.0000
  O   O2        1.0  0.48246840922568435  0.004894717031028062  0.07481635109984008  1.0000
  O   O3        1.0  0.36024231191271294  0.3571065426036153  0.3799892727280821  1.0000
  O   O4        1.0  0.3094772932823632  0.2410501166933372  0.9490211789886802  1.0000
  O   O5        1.0  0.4699406705966289  0.017237288765846515  0.8174811521418234  1.0000
  O   O6        1.0  0.9240892679468021  0.10565816997858013  0.6823065046667682  1.0000
  O   O7        1.0  0.9369465565432594  0.2157288957847403  0.32759657820113697  1.0000
  O   O8        1.0  0.6599847391270373  0.6199677248931349  0.1922946832735867  1.0000
  O   O9        1.0  0.7013655010221116  0.5817608873097115  0.7831906362886265  1.0000
  O   O10       1.0  0.5025876132677127  0.19389433586501292  0.6811459892638647  1.0000
  O   O11       1.0  0.07824709211174774  0.9992788034850658  0.21686521684803337  1.0000
  O   O12       1.0  0.5088419444748586  0.0953700456443598  0.267671961452949  1.0000
data_image187
_chemical_formula_structural       Na4C8N4O12
_chemical_formula_sum              "Na4 C8 N4 O12"
_cell_length_a       5.423166
_cell_length_b       3.6248270000000002
_cell_length_c       20.275782753631116
_cell_angle_alpha    88.79220736031418
_cell_angle_beta     90.0
_cell_angle_gamma    90.0

_space_group_name_H-M_alt    "P 1"
_space_group_IT_number       1

loop_
  _space_group_symop_operation_xyz
  'x, y, z'

loop_
  _atom_site_type_symbol
  _atom_site_label
  _atom_site_symmetry_multiplicity
  _atom_site_fract_x
  _atom_site_fract_y
  _atom_site_fract_z
  _atom_site_occupancy
  Na  Na1       1.0  0.5331130260309636  0.3934800984989295  0.9271211101736673  1.0000
  Na  Na2       1.0  0.418769795931775  0.8172855461285542  0.6025123349552178  1.0000
  Na  Na3       1.0  0.08340246868494972  0.46489296395646884  0.09155334831022385  1.0000
  Na  Na4       1.0  0.05996014024562446  0.9352912978692567  0.4414402343417341  1.0000
  C   C1        1.0  0.912819163869142  0.3406668383538154  0.5599028954454179  1.0000
  C   C2        1.0  0.5313671271652465  0.9193490246602853  0.06404029439878856  1.0000
  C   C3        1.0  0.6181281899854598  0.31170932926243156  0.40405436852142534  1.0000
  C   C4        1.0  0.05479263664510259  0.1952451388277363  0.9329242470161468  1.0000
  C   C5        1.0  0.43902524883617056  0.5755077005850135  0.8068484547163501  1.0000
  C   C6        1.0  0.8219143950739997  0.8953812556426068  0.7060812267928873  1.0000
  C   C7        1.0  0.06393717201487736  0.248774049077298  0.2608161286407473  1.0000
  C   C8        1.0  0.6089083105040975  0.7751751440230621  0.22146460435000626  1.0000
  N   N1        1.0  0.1295944700047355  0.25998529727443775  0.5466122374369254  1.0000
  N   N2        1.0  0.7486499172622469  0.906453962183579  0.03923975252356726  1.0000
  N   N3        1.0  0.799123312037741  0.4891272227505512  0.39928531898175806  1.0000
  N   N4        1.0  0.891569437369216  0.04955627337233359  0.9122431514201982  1.0000
  O   O1        1.0  0.7175590288482692  0.41895625407540515  0.5882507298430105  1.0000
  O   O2        1.0  0.3261573902395452  0.8965113053217588  0.07613299109452387  1.0000
  O   O3        1.0  0.41905075394042135  0.1418839514801391  0.4222611372119802  1.0000
  O   O4        1.0  0.15706392224586505  0.46766222717028905  0.9639096182142398  1.0000
  O   O5        1.0  0.2157159307657296  0.5687549720851903  0.7921834443766718  1.0000
  O   O6        1.0  0.04194503055386667  0.9396503947509403  0.7112354580109981  1.0000
  O   O7        1.0  0.12280141543341139  0.37758344167284413  0.31334588819805465  1.0000
  O   O8        1.0  0.610809042995712  0.6486411168389616  0.17215586525992344  1.0000
  O   O9        1.0  0.640050254850498  0.4990351330363536  0.8276116998332675  1.0000
  O   O10       1.0  0.6100345636371796  0.7909273360687998  0.7021679572403013  1.0000
  O   O11       1.0  0.05671899687449722  0.12372495507184451  0.2075055626277584  1.0000
  O   O12       1.0  0.5719898686387789  0.9942323817076855  0.26425263354752937  1.0000
data_image188
_chemical_formula_structural       Na4C8N4O12
_chemical_formula_sum              "Na4 C8 N4 O12"
_cell_length_a       5.423166
_cell_length_b       3.6248270000000002
_cell_length_c       20.275782753631116
_cell_angle_alpha    88.79220736031418
_cell_angle_beta     90.0
_cell_angle_gamma    90.0

_space_group_name_H-M_alt    "P 1"
_space_group_IT_number       1

loop_
  _space_group_symop_operation_xyz
  'x, y, z'

loop_
  _atom_site_type_symbol
  _atom_site_label
  _atom_site_symmetry_multiplicity
  _atom_site_fract_x
  _atom_site_fract_y
  _atom_site_fract_z
  _atom_site_occupancy
  Na  Na1       1.0  0.7322225121820967  0.63518859557867  0.9454277237970503  1.0000
  Na  Na2       1.0  0.3139530632217967  0.6229743435856605  0.6106549019551294  1.0000
  Na  Na3       1.0  0.9935160647448136  0.34048952134422283  0.09592394950653203  1.0000
  Na  Na4       1.0  0.13820610161226665  0.9149439384071849  0.43724384022770413  1.0000
  C   C1        1.0  0.8156808545129195  0.40970101099441636  0.5421470678064494  1.0000
  C   C2        1.0  0.4547482875569764  0.07826423310617647  0.06578573356395467  1.0000
  C   C3        1.0  0.6653051356318078  0.3857652039839099  0.42334538318434267  1.0000
  C   C4        1.0  0.98944545406104  0.1045906037591271  0.9270865639885683  1.0000
  C   C5        1.0  0.27928116386789525  0.4492946192479974  0.8138844166427877  1.0000
  C   C6        1.0  0.907982049500695  0.8984600110260224  0.7079117779077185  1.0000
  C   C7        1.0  0.16719202237516373  0.3407283853150919  0.25109678208213504  1.0000
  C   C8        1.0  0.7664447045160427  0.6358169191770651  0.22346398547478194  1.0000
  N   N1        1.0  0.9759750659096953  0.20964496076907269  0.5546195875357909  1.0000
  N   N2        1.0  0.5537994053396587  0.28727921913935495  0.03066952706442838  1.0000
  N   N3        1.0  0.8061584530204724  0.600412075114455  0.39962264658347146  1.0000
  N   N4        1.0  0.8793338130243182  0.10877619694696028  0.8739939706396512  1.0000
  O   O1        1.0  0.6408141907729012  0.63338615816804  0.5440504645452795  1.0000
  O   O2        1.0  0.3252060524645211  0.8847295756639681  0.11132615260872081  1.0000
  O   O3        1.0  0.49614832664291497  0.14748118182110614  0.4321558857420309  1.0000
  O   O4        1.0  0.08217352468917506  0.15425658930320507  0.9769398092565486  1.0000
  O   O5        1.0  0.09702789618885987  0.6387622421342183  0.8177832561929387  1.0000
  O   O6        1.0  0.06745629663117136  0.08725690543552389  0.6992320082253529  1.0000
  O   O7        1.0  0.1855100347782097  0.48716768054359094  0.3021828220290103  1.0000
  O   O8        1.0  0.7332230077743322  0.46821002461809713  0.1727434447307188  1.0000
  O   O9        1.0  0.4400110631731604  0.27504009175007127  0.7918084910212703  1.0000
  O   O10       1.0  0.726619282870588  0.7175784353226611  0.7212082918338828  1.0000
  O   O11       1.0  0.13173237620715095  0.22356316345306737  0.19792546406460418  1.0000
  O   O12       1.0  0.7596695333593775  0.8215190236027619  0.2703602293020408  1.0000
data_image189
_chemical_formula_structural       Na4C8N4O12
_chemical_formula_sum              "Na4 C8 N4 O12"
_cell_length_a       5.423166
_cell_length_b       3.6248270000000002
_cell_length_c       20.275782753631116
_cell_angle_alpha    88.79220736031418
_cell_angle_beta     90.0
_cell_angle_gamma    90.0

_space_group_name_H-M_alt    "P 1"
_space_group_IT_number       1

loop_
  _space_group_symop_operation_xyz
  'x, y, z'

loop_
  _atom_site_type_symbol
  _atom_site_label
  _atom_site_symmetry_multiplicity
  _atom_site_fract_x
  _atom_site_fract_y
  _atom_site_fract_z
  _atom_site_occupancy
  Na  Na1       1.0  0.5648498444683496  0.5893788691548489  0.9603302520643465  1.0000
  Na  Na2       1.0  0.2736897201280767  0.5891509692062504  0.6154772757965826  1.0000
  Na  Na3       1.0  0.9395961450157001  0.346091430977018  0.07925590460662403  1.0000
  Na  Na4       1.0  0.21804028017621158  0.7105312696146875  0.4377633067138927  1.0000
  C   C1        1.0  0.7997524955741965  0.45977554814969  0.544991093508991  1.0000
  C   C2        1.0  0.41403130865717563  0.7827069918920477  0.08210709464594546  1.0000
  C   C3        1.0  0.636632084390161  0.4565286577070231  0.4085581940841066  1.0000
  C   C4        1.0  0.0018462028299655042  0.24986389558751743  0.9354321266503288  1.0000
  C   C5        1.0  0.413105227561144  0.4863016203779389  0.8071716190210149  1.0000
  C   C6        1.0  0.881597001892083  0.898212858612476  0.6785767996385684  1.0000
  C   C7        1.0  0.16885537184995925  0.3716786513263024  0.28007640075846346  1.0000
  C   C8        1.0  0.7558235054339184  0.8650281159954822  0.21238188421819737  1.0000
  N   N1        1.0  0.9714817693289077  0.3018279415646461  0.5178393390859595  1.0000
  N   N2        1.0  0.5873833237656709  0.8818904195268571  0.04785498750950845  1.0000
  N   N3        1.0  0.8049174140376105  0.6995569102527526  0.39923975693757624  1.0000
  N   N4        1.0  0.9074339119511348  0.11419588417059678  0.8822089948557744  1.0000
  O   O1        1.0  0.6115692294786574  0.6239038593988147  0.5609681908721638  1.0000
  O   O2        1.0  0.23792388980227286  0.7177348913735384  0.11248384695894509  1.0000
  O   O3        1.0  0.46656046338588  0.24288001812782767  0.4088125209364501  1.0000
  O   O4        1.0  0.11900233144593464  0.31164486614330666  0.9820455138932968  1.0000
  O   O5        1.0  0.23776613836041283  0.6652706034024676  0.8026553043610601  1.0000
  O   O6        1.0  0.08695319984854888  0.039541975051920364  0.6639308236841308  1.0000
  O   O7        1.0  0.06894700175834578  0.35097951525397203  0.3310816125359851  1.0000
  O   O8        1.0  0.6711602493530551  0.6013305761916111  0.18269257504587966  1.0000
  O   O9        1.0  0.5821142621245099  0.2813207287259778  0.8012729463971355  1.0000
  O   O10       1.0  0.6994656365488803  0.8061593780370906  0.7054111219573188  1.0000
  O   O11       1.0  0.27651394011760955  0.2410496201483134  0.23631644546064562  1.0000
  O   O12       1.0  0.821099901070532  0.037197477976410376  0.25985024787037564  1.0000
data_image190
_chemical_formula_structural       Na4C8N4O12
_chemical_formula_sum              "Na4 C8 N4 O12"
_cell_length_a       5.423166
_cell_length_b       3.6248270000000002
_cell_length_c       20.275782753631116
_cell_angle_alpha    88.79220736031418
_cell_angle_beta     90.0
_cell_angle_gamma    90.0

_space_group_name_H-M_alt    "P 1"
_space_group_IT_number       1

loop_
  _space_group_symop_operation_xyz
  'x, y, z'

loop_
  _atom_site_type_symbol
  _atom_site_label
  _atom_site_symmetry_multiplicity
  _atom_site_fract_x
  _atom_site_fract_y
  _atom_site_fract_z
  _atom_site_occupancy
  Na  Na1       1.0  0.568680298910166  0.41626644194702966  0.9164888460206286  1.0000
  Na  Na2       1.0  0.24386843310402384  0.5045939624177193  0.6141254791727744  1.0000
  Na  Na3       1.0  0.04331556495190658  0.5540760086394371  0.12329421257817999  1.0000
  Na  Na4       1.0  0.0930608077268551  0.6719670868150671  0.4563374743843559  1.0000
  C   C1        1.0  0.8276990322152693  0.3567431181282954  0.5537393144560111  1.0000
  C   C2        1.0  0.4036166400893636  0.012675040184394692  0.06562477875558859  1.0000
  C   C3        1.0  0.5237455550743628  0.5490539274964323  0.41435289081350685  1.0000
  C   C4        1.0  0.07493625764629464  0.3027300861874025  0.9350192290198578  1.0000
  C   C5        1.0  0.48951356679065183  0.5491398459695094  0.7855919108551753  1.0000
  C   C6        1.0  0.9941710811940281  0.9738936346306257  0.6693484769184751  1.0000
  C   C7        1.0  0.07542067941927866  0.23781534091550766  0.28050069536198713  1.0000
  C   C8        1.0  0.6739068031424316  0.5114431265124988  0.23785374033459308  1.0000
  N   N1        1.0  0.025196046140454974  0.20756536933105052  0.5584388409142276  1.0000
  N   N2        1.0  0.5656301201544853  0.8879651644020778  0.03604787292387024  1.0000
  N   N3        1.0  0.7073463364850676  0.7583205244398097  0.4107400490548443  1.0000
  N   N4        1.0  0.9308409747930876  0.11826467709291455  0.910076412082641  1.0000
  O   O1        1.0  0.6362566201506458  0.49572010798715793  0.5413879815183951  1.0000
  O   O2        1.0  0.24133265325806905  0.10196062933449657  0.10173040391728905  1.0000
  O   O3        1.0  0.37100972148096756  0.3076797786105523  0.41666724184636833  1.0000
  O   O4        1.0  0.2396337139597041  0.43224881466359033  0.968959285624393  1.0000
  O   O5        1.0  0.28438125913963574  0.6234595002827277  0.7885479338085964  1.0000
  O   O6        1.0  0.20782916168670096  0.9700127101541209  0.6721338375969629  1.0000
  O   O7        1.0  0.9719336687010904  0.2866249760447118  0.3334938621262386  1.0000
  O   O8        1.0  0.7457212342978936  0.4007207997054362  0.18454017324099498  1.0000
  O   O9        1.0  0.714939838163843  0.480741271300579  0.7925758526399832  1.0000
  O   O10       1.0  0.7662532045232704  0.9919165435620065  0.6640795683767055  1.0000
  O   O11       1.0  0.2012488651489588  0.27700054027746623  0.23038403111786354  1.0000
  O   O12       1.0  0.610038934794413  0.7575454272594748  0.2738435478907132  1.0000
data_image191
_chemical_formula_structural       Na4C8N4O12
_chemical_formula_sum              "Na4 C8 N4 O12"
_cell_length_a       5.423166
_cell_length_b       3.6248270000000002
_cell_length_c       20.275782753631116
_cell_angle_alpha    88.79220736031418
_cell_angle_beta     90.0
_cell_angle_gamma    90.0

_space_group_name_H-M_alt    "P 1"
_space_group_IT_number       1

loop_
  _space_group_symop_operation_xyz
  'x, y, z'

loop_
  _atom_site_type_symbol
  _atom_site_label
  _atom_site_symmetry_multiplicity
  _atom_site_fract_x
  _atom_site_fract_y
  _atom_site_fract_z
  _atom_site_occupancy
  Na  Na1       1.0  0.6661861769638386  0.7094651049112182  0.9699270910790392  1.0000
  Na  Na2       1.0  0.3105402123698492  0.2044584336912153  0.6239564543967626  1.0000
  Na  Na3       1.0  0.9941600101975875  0.9398547171839182  0.11154797585402983  1.0000
  Na  Na4       1.0  0.12433584845910439  0.9718072279406869  0.4208559118888444  1.0000
  C   C1        1.0  0.8577664449096496  0.3936830233906915  0.537860613358066  1.0000
  C   C2        1.0  0.5422683484318174  0.2222075261945724  0.07727836320886583  1.0000
  C   C3        1.0  0.5542901642712539  0.5022067985553615  0.4068618130096254  1.0000
  C   C4        1.0  0.9985896364124337  0.129994981244685  0.9221260966449341  1.0000
  C   C5        1.0  0.4555975578030236  0.4306998978406287  0.7940893379802495  1.0000
  C   C6        1.0  0.9078198613984289  0.9479790113923416  0.6906706613155656  1.0000
  C   C7        1.0  0.15045138248166956  0.2093689238183271  0.2640305876134678  1.0000
  C   C8        1.0  0.5550664811193984  0.4853969931235078  0.22211209591966552  1.0000
  N   N1        1.0  0.06350709622531758  0.5249085111300278  0.5513683076834254  1.0000
  N   N2        1.0  0.7289924732390702  0.10888201218098459  0.05565472267634375  1.0000
  N   N3        1.0  0.7643305765688873  0.5171740439222252  0.4267947270067677  1.0000
  N   N4        1.0  0.9693879330665105  0.9115482666452344  0.8800825120610679  1.0000
  O   O1        1.0  0.6396288822988616  0.26155211657093924  0.5560461909008461  1.0000
  O   O2        1.0  0.34718521372069955  0.3113194345029551  0.10119137173596648  1.0000
  O   O3        1.0  0.34388540670700674  0.403008474147287  0.3852758911268881  1.0000
  O   O4        1.0  0.06402930481092066  0.3522703916354071  0.9625467571693911  1.0000
  O   O5        1.0  0.3077455666598218  0.2559484763904907  0.7740380465499743  1.0000
  O   O6        1.0  0.11597090918511044  0.8003411089423764  0.6944369111558912  1.0000
  O   O7        1.0  0.08822312467968518  0.9533923268311356  0.2957951156314984  1.0000
  O   O8        1.0  0.6392749325900269  0.22734361006636092  0.19548307527074793  1.0000
  O   O9        1.0  0.6456964500435158  0.4943938651833468  0.8231679654196232  1.0000
  O   O10       1.0  0.7226517174003426  0.08787242568299058  0.7038456240092066  1.0000
  O   O11       1.0  0.13907773744583496  0.362163290679622  0.21167718603868896  1.0000
  O   O12       1.0  0.4955244657571167  0.6897505656439973  0.2636850178757123  1.0000
data_image192
_chemical_formula_structural       Na4C8N4O12
_chemical_formula_sum              "Na4 C8 N4 O12"
_cell_length_a       5.423166
_cell_length_b       3.6248270000000002
_cell_length_c       20.275782753631116
_cell_angle_alpha    88.79220736031418
_cell_angle_beta     90.0
_cell_angle_gamma    90.0

_space_group_name_H-M_alt    "P 1"
_space_group_IT_number       1

loop_
  _space_group_symop_operation_xyz
  'x, y, z'

loop_
  _atom_site_type_symbol
  _atom_site_label
  _atom_site_symmetry_multiplicity
  _atom_site_fract_x
  _atom_site_fract_y
  _atom_site_fract_z
  _atom_site_occupancy
  Na  Na1       1.0  0.7072057564440151  0.7265069592990163  0.956093502668522  1.0000
  Na  Na2       1.0  0.36735197720545965  0.9594836519370311  0.6180426511248127  1.0000
  Na  Na3       1.0  0.05238959827531109  0.9490586883239739  0.12059082125519908  1.0000
  Na  Na4       1.0  0.16011010956063965  0.8516814884821104  0.3981482263465123  1.0000
  C   C1        1.0  0.95315264362749  0.40500513217988554  0.5523253733412669  1.0000
  C   C2        1.0  0.48708803637584963  0.36527384835055576  0.05285972345355039  1.0000
  C   C3        1.0  0.6716508731259834  0.3594312812678728  0.4022809382693027  1.0000
  C   C4        1.0  0.02999095818567743  0.2876308176550868  0.9179401526465272  1.0000
  C   C5        1.0  0.3897224423929081  0.43760506185471115  0.8247837247615485  1.0000
  C   C6        1.0  0.7950606560990631  0.6660208565110177  0.7112689335997722  1.0000
  C   C7        1.0  0.05958769997830471  0.21989455466894295  0.2566827595799644  1.0000
  C   C8        1.0  0.5645485576493969  0.5674197069974367  0.24885133027008136  1.0000
  N   N1        1.0  0.16330828906394163  0.5340075161304949  0.53329027411373  1.0000
  N   N2        1.0  0.7126229573810928  0.29675867174964576  0.04456215384090223  1.0000
  N   N3        1.0  0.8692109705370794  0.4522269151689402  0.3736215480399716  1.0000
  N   N4        1.0  0.8850202868162346  0.15788311968074353  0.8752782825617569  1.0000
  O   O1        1.0  0.7925362275201174  0.22130285089850343  0.5786111727329611  1.0000
  O   O2        1.0  0.28025286908062674  0.44410404617636257  0.07927608224204974  1.0000
  O   O3        1.0  0.4469986171520557  0.3741748205271298  0.41533860186209465  1.0000
  O   O4        1.0  0.1765402584866029  0.43064907238869754  0.9547433084725472  1.0000
  O   O5        1.0  0.3186690570618579  0.3308078364586624  0.7717629330704106  1.0000
  O   O6        1.0  0.9373598686526614  0.5188402486539698  0.6733837077941015  1.0000
  O   O7        1.0  0.044770549192015174  0.9399077165046266  0.2832444792573869  1.0000
  O   O8        1.0  0.5506285409564324  0.3599711977758537  0.2056706932756519  1.0000
  O   O9        1.0  0.44847943851467775  0.6548410935670299  0.8585639807240254  1.0000
  O   O10       1.0  0.6707784843679634  0.8758111525187666  0.7392579846257283  1.0000
  O   O11       1.0  0.03497764622335908  0.3902298959512393  0.20866137341645138  1.0000
  O   O12       1.0  0.5334116066511408  0.8247294033954988  0.28439415404199037  1.0000
data_image193
_chemical_formula_structural       Na4C8N4O12
_chemical_formula_sum              "Na4 C8 N4 O12"
_cell_length_a       5.423166
_cell_length_b       3.6248270000000002
_cell_length_c       20.275782753631116
_cell_angle_alpha    88.79220736031418
_cell_angle_beta     90.0
_cell_angle_gamma    90.0

_space_group_name_H-M_alt    "P 1"
_space_group_IT_number       1

loop_
  _space_group_symop_operation_xyz
  'x, y, z'

loop_
  _atom_site_type_symbol
  _atom_site_label
  _atom_site_symmetry_multiplicity
  _atom_site_fract_x
  _atom_site_fract_y
  _atom_site_fract_z
  _atom_site_occupancy
  Na  Na1       1.0  0.48680061578083333  0.8508066266643783  0.9905035779076388  1.0000
  Na  Na2       1.0  0.30841235482277185  0.9548946179270552  0.5363954956936616  1.0000
  Na  Na3       1.0  0.007750231216441472  0.703253382012464  0.07104361033732953  1.0000
  Na  Na4       1.0  0.19960500911929158  0.8278746188949739  0.37879278804632516  1.0000
  C   C1        1.0  0.7899864254682052  0.4547085989266947  0.5610944810293278  1.0000
  C   C2        1.0  0.5506248797945683  0.3840461023989197  0.07801260281326616  1.0000
  C   C3        1.0  0.7062255233218024  0.18151837969125761  0.42451796831891614  1.0000
  C   C4        1.0  0.031156159132184502  0.24416198960876745  0.9491795384028547  1.0000
  C   C5        1.0  0.4407125132213662  0.6339873614060769  0.8178468667556422  1.0000
  C   C6        1.0  0.9457670534669416  0.5575172172283722  0.6864474536686485  1.0000
  C   C7        1.0  0.0067406433556995715  0.31052224597356165  0.23682890062876907  1.0000
  C   C8        1.0  0.5496722071117988  0.6782032813715975  0.25634106715216365  1.0000
  N   N1        1.0  0.004969801038334718  0.419226258312943  0.5527841523964834  1.0000
  N   N2        1.0  0.7503766665182712  0.21356448026480468  0.07570328078628119  1.0000
  N   N3        1.0  0.9070345160820736  0.3322600117742045  0.4207362647586599  1.0000
  N   N4        1.0  0.8278375578909594  0.2716805042366395  0.9272148532902844  1.0000
  O   O1        1.0  0.5804353608361987  0.4983920660430653  0.562099803029191  1.0000
  O   O2        1.0  0.3818541672468758  0.6162735787808584  0.09071222016863034  1.0000
  O   O3        1.0  0.49786400073873605  0.03798259725667252  0.4312028176269952  1.0000
  O   O4        1.0  0.2250024919140677  0.2710770883008897  0.9730811136894503  1.0000
  O   O5        1.0  0.4223295363290307  0.3957435291981142  0.7789493489689641  1.0000
  O   O6        1.0  0.09576258925757375  0.3195113248666539  0.688852428756786  1.0000
  O   O7        1.0  0.05700594128020775  0.24545772200386645  0.29549836351118913  1.0000
  O   O8        1.0  0.6018599257719814  0.5236299878112844  0.20933905558646262  1.0000
  O   O9        1.0  0.4572025389182497  0.879590024000434  0.8529339733805661  1.0000
  O   O10       1.0  0.7930630513185453  0.8036924854375105  0.6821799224459154  1.0000
  O   O11       1.0  0.009830798679207886  0.31732498642819185  0.17622418043167756  1.0000
  O   O12       1.0  0.5925900280491474  0.7480084038042205  0.3147621132096805  1.0000
data_image194
_chemical_formula_structural       Na4C8N4O12
_chemical_formula_sum              "Na4 C8 N4 O12"
_cell_length_a       5.423166
_cell_length_b       3.6248270000000002
_cell_length_c       20.275782753631116
_cell_angle_alpha    88.79220736031418
_cell_angle_beta     90.0
_cell_angle_gamma    90.0

_space_group_name_H-M_alt    "P 1"
_space_group_IT_number       1

loop_
  _space_group_symop_operation_xyz
  'x, y, z'

loop_
  _atom_site_type_symbol
  _atom_site_label
  _atom_site_symmetry_multiplicity
  _atom_site_fract_x
  _atom_site_fract_y
  _atom_site_fract_z
  _atom_site_occupancy
  Na  Na1       1.0  0.5475475701971708  0.6928963954467504  0.9640015205070565  1.0000
  Na  Na2       1.0  0.23851843602690392  0.10628400480677469  0.5384135933095405  1.0000
  Na  Na3       1.0  0.9712326139806569  0.756561731556146  0.02332032703260928  1.0000
  Na  Na4       1.0  0.06225250264218629  0.7580897809460558  0.3750796493176577  1.0000
  C   C1        1.0  0.7778114478007451  0.5159713605664644  0.5928970655768129  1.0000
  C   C2        1.0  0.4983987651428563  0.4468711931263978  0.07438326854630906  1.0000
  C   C3        1.0  0.6431028433294175  0.11308374893680018  0.4320991673291172  1.0000
  C   C4        1.0  0.01417879503029873  0.27414394168125833  0.9494363837725718  1.0000
  C   C5        1.0  0.4589377824793016  0.5562348059128701  0.8129692765908938  1.0000
  C   C6        1.0  0.07214607720559396  0.5329696648337219  0.7135711164990386  1.0000
  C   C7        1.0  0.10678949488317913  0.20109910112598606  0.2267736524862973  1.0000
  C   C8        1.0  0.6395770314022111  0.7934339783129132  0.250290641169388  1.0000
  N   N1        1.0  0.9848558424516829  0.3743502345302766  0.5975080451782493  1.0000
  N   N2        1.0  0.6811455971434338  0.2558215617998889  0.07289032277561369  1.0000
  N   N3        1.0  0.83929648909645  0.2478428771444774  0.43472498209444443  1.0000
  N   N4        1.0  0.7976031977633086  0.23528448170785454  0.9487705739185649  1.0000
  O   O1        1.0  0.5702266295354722  0.6291661203376357  0.57509446203294  1.0000
  O   O2        1.0  0.2956282078017369  0.6348590665952392  0.08499611287864761  1.0000
  O   O3        1.0  0.4332621721513703  0.9695825866807026  0.4361266536629414  1.0000
  O   O4        1.0  0.2216233437300475  0.3656360904645326  0.9386662189396264  1.0000
  O   O5        1.0  0.6097407117863041  0.396460360964487  0.7770410088256248  1.0000
  O   O6        1.0  0.18892862323128723  0.3015269639185907  0.735471085638395  1.0000
  O   O7        1.0  0.17390714357509363  0.16163605882707266  0.2811089584997206  1.0000
  O   O8        1.0  0.4756059527003209  0.800628990322454  0.2091744443949542  1.0000
  O   O9        1.0  0.3117273003800528  0.6832831140430078  0.848311242488526  1.0000
  O   O10       1.0  0.9142618908532565  0.7814452115966399  0.7076779827063197  1.0000
  O   O11       1.0  0.07498377023915137  0.24803848321166203  0.16804914021207984  1.0000
  O   O12       1.0  0.7306880702900398  0.8325890056541401  0.30333101132449647  1.0000
data_image195
_chemical_formula_structural       Na4C8N4O12
_chemical_formula_sum              "Na4 C8 N4 O12"
_cell_length_a       5.423166
_cell_length_b       3.6248270000000002
_cell_length_c       20.275782753631116
_cell_angle_alpha    88.79220736031418
_cell_angle_beta     90.0
_cell_angle_gamma    90.0

_space_group_name_H-M_alt    "P 1"
_space_group_IT_number       1

loop_
  _space_group_symop_operation_xyz
  'x, y, z'

loop_
  _atom_site_type_symbol
  _atom_site_label
  _atom_site_symmetry_multiplicity
  _atom_site_fract_x
  _atom_site_fract_y
  _atom_site_fract_z
  _atom_site_occupancy
  Na  Na1       1.0  0.6161251207467531  0.677396805108462  0.9268321529864486  1.0000
  Na  Na2       1.0  0.3297411352175489  0.9853376116309205  0.5628576064488677  1.0000
  Na  Na3       1.0  0.9153302795488228  0.8143372048563614  0.06520065072037623  1.0000
  Na  Na4       1.0  0.057230136246985364  0.8107384019133059  0.4062884077909485  1.0000
  C   C1        1.0  0.834221790425056  0.5761312812022257  0.5723906694314295  1.0000
  C   C2        1.0  0.42886010872736136  0.43366639998870316  0.07156426751655864  1.0000
  C   C3        1.0  0.6660118468293013  0.20138656956041023  0.43029845151883156  1.0000
  C   C4        1.0  0.09312455989308588  0.2501957804045456  0.9345236417148926  1.0000
  C   C5        1.0  0.5161910174346522  0.5518152831014644  0.8028533685043594  1.0000
  C   C6        1.0  0.9913363860665928  0.5550272322596017  0.7145486320025607  1.0000
  C   C7        1.0  0.08041619589462567  0.24695397550307657  0.2551401805206426  1.0000
  C   C8        1.0  0.5419521358792474  0.6200749615310548  0.2508910460359002  1.0000
  N   N1        1.0  0.055331884702963866  0.5857398886749912  0.568946212762335  1.0000
  N   N2        1.0  0.6301283071337763  0.31263452255870794  0.09158415125620656  1.0000
  N   N3        1.0  0.8855184455094556  0.2693912712353135  0.4413894636908583  1.0000
  N   N4        1.0  0.8890486282020039  0.13689752238588415  0.9507122178387785  1.0000
  O   O1        1.0  0.6102778788469705  0.5142250963170798  0.5574508520071241  1.0000
  O   O2        1.0  0.27015956938347124  0.6502863972071022  0.05513840080103627  1.0000
  O   O3        1.0  0.45464542643936157  0.1523143278038983  0.4180859698430988  1.0000
  O   O4        1.0  0.2731905284330154  0.2771192049823239  0.9018902502535842  1.0000
  O   O5        1.0  0.6767504569411598  0.33542899786841396  0.8107977319063377  1.0000
  O   O6        1.0  0.182247387786028  0.48532794423035064  0.7074351397977073  1.0000
  O   O7        1.0  0.07920845222276118  0.36566502614493457  0.3104355130621153  1.0000
  O   O8        1.0  0.45727251222260046  0.6149466339156578  0.1962418292355598  1.0000
  O   O9        1.0  0.35489675226309814  0.7610408051179229  0.8075696387107116  1.0000
  O   O10       1.0  0.7984241591205461  0.715042822506504  0.7207254378603962  1.0000
  O   O11       1.0  0.006318459207296678  0.0489624013236747  0.20913199197529403  1.0000
  O   O12       1.0  0.6030446453289166  0.7517413033873188  0.29877743257913913  1.0000
data_image196
_chemical_formula_structural       Na4C8N4O12
_chemical_formula_sum              "Na4 C8 N4 O12"
_cell_length_a       5.423166
_cell_length_b       3.6248270000000002
_cell_length_c       20.275782753631116
_cell_angle_alpha    88.79220736031418
_cell_angle_beta     90.0
_cell_angle_gamma    90.0

_space_group_name_H-M_alt    "P 1"
_space_group_IT_number       1

loop_
  _space_group_symop_operation_xyz
  'x, y, z'

loop_
  _atom_site_type_symbol
  _atom_site_label
  _atom_site_symmetry_multiplicity
  _atom_site_fract_x
  _atom_site_fract_y
  _atom_site_fract_z
  _atom_site_occupancy
  Na  Na1       1.0  0.5964914434067128  0.7692514056211537  0.960342467344631  1.0000
  Na  Na2       1.0  0.49701590698672393  0.20412982436503124  0.6243361500796211  1.0000
  Na  Na3       1.0  0.8655035686535406  0.7446519916094883  0.09781451010823798  1.0000
  Na  Na4       1.0  0.09122717994872587  0.7886879060285756  0.42235785463604575  1.0000
  C   C1        1.0  0.8640945779019821  0.4842202487760501  0.5306331737797628  1.0000
  C   C2        1.0  0.4185735229270281  0.3551772716102648  0.05569743669879634  1.0000
  C   C3        1.0  0.6156737536587749  0.1712007573845038  0.41967973644808504  1.0000
  C   C4        1.0  0.16662377409479068  0.1925038796935321  0.9310840744829829  1.0000
  C   C5        1.0  0.49816116941261523  0.6649101150840981  0.8135553721747698  1.0000
  C   C6        1.0  0.9998743026893514  0.6861552278144125  0.6532740738392006  1.0000
  C   C7        1.0  0.004407432578690029  0.10112514976125292  0.25193694447540227  1.0000
  C   C8        1.0  0.5016254373790461  0.6435962446623145  0.2680310967787724  1.0000
  N   N1        1.0  0.04872460369393607  0.3127563170623747  0.5382703389525314  1.0000
  N   N2        1.0  0.635381138705136  0.2753520480150833  0.07311512549870725  1.0000
  N   N3        1.0  0.8163223088505058  0.23583036786471157  0.3981097070820216  1.0000
  N   N4        1.0  0.9484280932905648  0.13065541995058005  0.943007643604062  1.0000
  O   O1        1.0  0.6598314663535708  0.6179162672032701  0.5277499117961284  1.0000
  O   O2        1.0  0.22906181209965412  0.5439184540516675  0.05845847172391605  1.0000
  O   O3        1.0  0.4115771872058349  0.17943064883175852  0.44438016582548245  1.0000
  O   O4        1.0  0.3626174743125647  0.28831103868791574  0.9372707783327996  1.0000
  O   O5        1.0  0.6733080617277396  0.4917747864238535  0.8290308770636813  1.0000
  O   O6        1.0  0.21067658186339533  0.6079970921150668  0.6747906632914678  1.0000
  O   O7        1.0  0.007391700304842708  0.3507635053031421  0.28721713540846694  1.0000
  O   O8        1.0  0.5024931191962667  0.4671648824963024  0.21755417322941753  1.0000
  O   O9        1.0  0.3077029937989735  0.8153319760782187  0.7945420317120524  1.0000
  O   O10       1.0  0.784966922467915  0.6558181304206288  0.664141199704676  1.0000
  O   O11       1.0  0.957943093783119  0.004456622227493429  0.19911051928702483  1.0000
  O   O12       1.0  0.5402423323741431  0.7400601271829832  0.32245229854965  1.0000
data_image197
_chemical_formula_structural       Na4C8N4O12
_chemical_formula_sum              "Na4 C8 N4 O12"
_cell_length_a       5.423166
_cell_length_b       3.6248270000000002
_cell_length_c       20.275782753631116
_cell_angle_alpha    88.79220736031418
_cell_angle_beta     90.0
_cell_angle_gamma    90.0

_space_group_name_H-M_alt    "P 1"
_space_group_IT_number       1

loop_
  _space_group_symop_operation_xyz
  'x, y, z'

loop_
  _atom_site_type_symbol
  _atom_site_label
  _atom_site_symmetry_multiplicity
  _atom_site_fract_x
  _atom_site_fract_y
  _atom_site_fract_z
  _atom_site_occupancy
  Na  Na1       1.0  0.6323019573260578  0.7498315742965418  0.9794970205523561  1.0000
  Na  Na2       1.0  0.48467178733079097  0.10540159058808318  0.6190887190052945  1.0000
  Na  Na3       1.0  0.864056006570831  0.7689613623070988  0.12214283432030126  1.0000
  Na  Na4       1.0  0.0841927548767698  0.7158595842475766  0.422657292167433  1.0000
  C   C1        1.0  0.8864855101803489  0.3740687455720333  0.5395098770659511  1.0000
  C   C2        1.0  0.3699455118636438  0.2761180541291739  0.09035070415434276  1.0000
  C   C3        1.0  0.6022922434843487  0.21786165343269248  0.4019493582572526  1.0000
  C   C4        1.0  0.17532409150193828  0.24990250277747483  0.9169871736242221  1.0000
  C   C5        1.0  0.5398699746788131  0.762275085447893  0.8165057569690841  1.0000
  C   C6        1.0  0.995125103113835  0.7004200648189136  0.6487835169797103  1.0000
  C   C7        1.0  0.0014450160152543745  0.1292480519685658  0.2533444002581283  1.0000
  C   C8        1.0  0.463074373941073  0.7625452355860982  0.2576099488779511  1.0000
  N   N1        1.0  0.053640813587190354  0.13571064767821206  0.534102211629259  1.0000
  N   N2        1.0  0.5879537453372191  0.21630142506004502  0.08679107804518993  1.0000
  N   N3        1.0  0.8134670528905061  0.2306854162406693  0.37478247680198423  1.0000
  N   N4        1.0  0.9490030513677653  0.35354490617303735  0.9335976561114181  1.0000
  O   O1        1.0  0.7068185621976575  0.5817511492164329  0.5336257887889866  1.0000
  O   O2        1.0  0.15342851423751167  0.18344265985324704  0.1110833782454459  1.0000
  O   O3        1.0  0.38408553338082574  0.2534196474318007  0.4190048389568874  1.0000
  O   O4        1.0  0.38682355566831894  0.1779091800079784  0.9070069699392637  1.0000
  O   O5        1.0  0.7249287740683326  0.6454848349986326  0.8011024731240796  1.0000
  O   O6        1.0  0.20913515075917166  0.6309774994512529  0.6500812072953552  1.0000
  O   O7        1.0  0.10273991166800012  0.3335946573203418  0.283737201146606  1.0000
  O   O8        1.0  0.4866089002056162  0.7102068411769833  0.19604594962971716  1.0000
  O   O9        1.0  0.3315108439615593  0.8735758291412101  0.8053133428949626  1.0000
  O   O10       1.0  0.792684304840211  0.718172386837366  0.6764969541033463  1.0000
  O   O11       1.0  0.9584263703261638  0.874702724371076  0.2248052902679893  1.0000
  O   O12       1.0  0.4573467492919866  0.9058018734148814  0.3127851282098756  1.0000
data_image198
_chemical_formula_structural       Na4C8N4O12
_chemical_formula_sum              "Na4 C8 N4 O12"
_cell_length_a       5.423166
_cell_length_b       3.6248270000000002
_cell_length_c       20.275782753631116
_cell_angle_alpha    88.79220736031418
_cell_angle_beta     90.0
_cell_angle_gamma    90.0

_space_group_name_H-M_alt    "P 1"
_space_group_IT_number       1

loop_
  _space_group_symop_operation_xyz
  'x, y, z'

loop_
  _atom_site_type_symbol
  _atom_site_label
  _atom_site_symmetry_multiplicity
  _atom_site_fract_x
  _atom_site_fract_y
  _atom_site_fract_z
  _atom_site_occupancy
  Na  Na1       1.0  0.5390426904833805  0.8237921141004121  0.950048593896228  1.0000
  Na  Na2       1.0  0.5563840292628102  0.8689760873316652  0.5551838300133766  1.0000
  Na  Na3       1.0  0.6453505183522467  0.7086487400476575  0.12423949933141011  1.0000
  Na  Na4       1.0  0.17837729813581094  0.7206303382410382  0.38859077907537803  1.0000
  C   C1        1.0  0.05553558097960377  0.33527282482238707  0.5316929002705549  1.0000
  C   C2        1.0  0.23835816940479404  0.23232062626261518  0.08058345986078064  1.0000
  C   C3        1.0  0.6326504419984778  0.1749928513874388  0.4232384712292816  1.0000
  C   C4        1.0  0.10869550708732167  0.3853121433086324  0.94920862297809  1.0000
  C   C5        1.0  0.5761068251691133  0.6936835746739587  0.798299142657916  1.0000
  C   C6        1.0  0.023472445894697325  0.7237303771523789  0.6816988518038407  1.0000
  C   C7        1.0  0.03819558919119803  0.22987706784700157  0.25602830337547083  1.0000
  C   C8        1.0  0.48652866139984674  0.8507173108599773  0.28374457491743493  1.0000
  N   N1        1.0  0.19333080804759448  0.1164162911483041  0.5550049734671426  1.0000
  N   N2        1.0  0.45769193049191936  0.26140403924473876  0.07206676700877268  1.0000
  N   N3        1.0  0.8556515560053042  0.12355025155649901  0.4212604068894376  1.0000
  N   N4        1.0  0.8894523095867839  0.3524219217274367  0.94561575996927  1.0000
  O   O1        1.0  0.8903894966607145  0.5541792164074821  0.5213895343339173  1.0000
  O   O2        1.0  0.009708731799467555  0.20716669792186782  0.07449765873770908  1.0000
  O   O3        1.0  0.3988855498310464  0.1888216038953181  0.4284131098605823  1.0000
  O   O4        1.0  0.3347886546589957  0.3694106731803224  0.9304145109792593  1.0000
  O   O5        1.0  0.7169938838806429  0.5174066592744655  0.8254438097401996  1.0000
  O   O6        1.0  0.22713057628392375  0.5430976261851801  0.6837068032148971  1.0000
  O   O7        1.0  0.008564792050713033  0.33592292568053  0.3122777880068751  1.0000
  O   O8        1.0  0.4321339223996561  0.9791680056736599  0.2334809698846384  1.0000
  O   O9        1.0  0.4711155965435454  0.9322892050532867  0.7708885430902289  1.0000
  O   O10       1.0  0.8377835314830346  0.8832759910311689  0.6648521721302266  1.0000
  O   O11       1.0  0.9419961130508662  0.0513775866184694  0.21437309225787848  1.0000
  O   O12       1.0  0.5461946217270647  0.6001821892470851  0.3250847351680013  1.0000
data_image199
_chemical_formula_structural       Na4C8N4O12
_chemical_formula_sum              "Na4 C8 N4 O12"
_cell_length_a       5.423166
_cell_length_b       3.6248270000000002
_cell_length_c       20.275782753631116
_cell_angle_alpha    88.79220736031418
_cell_angle_beta     90.0
_cell_angle_gamma    90.0

_space_group_name_H-M_alt    "P 1"
_space_group_IT_number       1

loop_
  _space_group_symop_operation_xyz
  'x, y, z'

loop_
  _atom_site_type_symbol
  _atom_site_label
  _atom_site_symmetry_multiplicity
  _atom_site_fract_x
  _atom_site_fract_y
  _atom_site_fract_z
  _atom_site_occupancy
  Na  Na1       1.0  0.45680856745554377  0.9901842523249325  0.9531107506278437  1.0000
  Na  Na2       1.0  0.6163119781107511  0.867180477939868  0.6033209228830324  1.0000
  Na  Na3       1.0  0.7615714203143698  0.6795474065817014  0.11178576814446373  1.0000
  Na  Na4       1.0  0.08556021959544324  0.8599547101347689  0.37262365993134394  1.0000
  C   C1        1.0  0.22042798767211166  0.46263059019876407  0.5563560130648266  1.0000
  C   C2        1.0  0.12758677749904113  0.11614670887397827  0.06462728913735494  1.0000
  C   C3        1.0  0.5388223723567722  0.12038234684192117  0.446561768393672  1.0000
  C   C4        1.0  0.03003955779026568  0.42918483897163506  0.9020445637699952  1.0000
  C   C5        1.0  0.6762291923373336  0.6700477663808835  0.7861846603657997  1.0000
  C   C6        1.0  0.07982844935176692  0.6067562040848979  0.7083972619339087  1.0000
  C   C7        1.0  0.02350610635393857  0.3689345280183664  0.2349908252776441  1.0000
  C   C8        1.0  0.5031273630423676  0.7978803906455529  0.27089640739349  1.0000
  N   N1        1.0  0.39842701102921446  0.4079429887546726  0.5952050992153388  1.0000
  N   N2        1.0  0.3437716917525139  0.18212834894873264  0.060912824412391764  1.0000
  N   N3        1.0  0.728339998338094  0.9045173680544303  0.43972017174363964  1.0000
  N   N4        1.0  0.825665712627113  0.41697503311774353  0.9259134644201314  1.0000
  O   O1        1.0  0.015354057376868038  0.4586685613442112  0.5348188551754012  1.0000
  O   O2        1.0  0.9103036903917318  0.09909951032839137  0.0688142840705781  1.0000
  O   O3        1.0  0.32972186297172157  0.18424266499742714  0.4554632157198122  1.0000
  O   O4        1.0  0.24602634123334838  0.2871481776224134  0.8750682279769886  1.0000
  O   O5        1.0  0.830992946922519  0.4229237717519676  0.7866734383657978  1.0000
  O   O6        1.0  0.2536172439914759  0.49695686173088305  0.7333712487197378  1.0000
  O   O7        1.0  0.042007185531481195  0.33025154592336003  0.29441277422034295  1.0000
  O   O8        1.0  0.43322376109711414  0.8869906534370785  0.21925064334620387  1.0000
  O   O9        1.0  0.5281563631333326  0.8936077696598432  0.7885650409090621  1.0000
  O   O10       1.0  0.9173382393094025  0.7052952939366153  0.6759573956787325  1.0000
  O   O11       1.0  0.8547969456894592  0.3525882379116461  0.1975520634517249  1.0000
  O   O12       1.0  0.5073356244447742  0.635751879436393  0.32342541265221303  1.0000
data_image200
_chemical_formula_structural       Na4C8N4O12
_chemical_formula_sum              "Na4 C8 N4 O12"
_cell_length_a       5.423166
_cell_length_b       3.6248270000000002
_cell_length_c       20.275782753631116
_cell_angle_alpha    88.79220736031418
_cell_angle_beta     90.0
_cell_angle_gamma    90.0

_space_group_name_H-M_alt    "P 1"
_space_group_IT_number       1

loop_
  _space_group_symop_operation_xyz
  'x, y, z'

loop_
  _atom_site_type_symbol
  _atom_site_label
  _atom_site_symmetry_multiplicity
  _atom_site_fract_x
  _atom_site_fract_y
  _atom_site_fract_z
  _atom_site_occupancy
  Na  Na1       1.0  0.5354679673599363  0.33552641127264937  0.9604033909702205  1.0000
  Na  Na2       1.0  0.6994269903856258  0.2254326570885299  0.6028225866724207  1.0000
  Na  Na3       1.0  0.7055778301261083  0.5597573337537882  0.11424057995132392  1.0000
  Na  Na4       1.0  0.0002711655089409071  0.6303030407712318  0.3959585065368224  1.0000
  C   C1        1.0  0.23723904728915732  0.6276910877745692  0.5427471365054031  1.0000
  C   C2        1.0  0.21618007940855244  0.9418722101256396  0.059822616056001365  1.0000
  C   C3        1.0  0.48874130558026896  0.07072585462735015  0.4417081645120789  1.0000
  C   C4        1.0  0.9873574899443703  0.5260839797961232  0.9358039963496468  1.0000
  C   C5        1.0  0.6081531838239813  0.5315066603538257  0.8098439948454247  1.0000
  C   C6        1.0  0.14621848210958888  0.6287048186427437  0.681602329453686  1.0000
  C   C7        1.0  0.9809504174482842  0.15105910615695928  0.24273757433435347  1.0000
  C   C8        1.0  0.43578525079760166  0.6785389559256976  0.2521568409462969  1.0000
  N   N1        1.0  0.43589300278222687  0.5652920163351534  0.5697856058626293  1.0000
  N   N2        1.0  0.4285791786583528  0.9851918628514231  0.055672049805592705  1.0000
  N   N3        1.0  0.6663257588966482  0.9419180740350659  0.46199079834280843  1.0000
  N   N4        1.0  0.825971366310262  0.729113306537585  0.9293855900887567  1.0000
  O   O1        1.0  0.029844375926118414  0.6132903659030627  0.5133660325067761  1.0000
  O   O2        1.0  0.002191410648603001  0.9116810216871245  0.05796732205994837  1.0000
  O   O3        1.0  0.27904665363573855  0.14809030051330963  0.41382323415822286  1.0000
  O   O4        1.0  0.18005754264678558  0.35684872757328057  0.9601444418030501  1.0000
  O   O5        1.0  0.759935344973562  0.3597860473202519  0.7865231145590266  1.0000
  O   O6        1.0  0.31379552391978893  0.46093310194341486  0.701512765522745  1.0000
  O   O7        1.0  0.06222560157487922  0.30303531556824465  0.2996724920137665  1.0000
  O   O8        1.0  0.4041490326137074  0.7413630481483315  0.19634521189922044  1.0000
  O   O9        1.0  0.4254474897315227  0.6837402977143028  0.832148707827411  1.0000
  O   O10       1.0  0.9973089601012974  0.7863396209245439  0.6512806838420235  1.0000
  O   O11       1.0  0.8707640639769512  0.23537945718058942  0.19603120018988768  1.0000
  O   O12       1.0  0.5369264166456178  0.6837379901234752  0.30402301460479964  1.0000
