data_image0
_chemical_formula_structural       Sn4P4S12
_chemical_formula_sum              "Sn4 P4 S12"
_cell_length_a       7.57141576
_cell_length_b       6.596566975487068
_cell_length_c       11.859499654632444
_cell_angle_alpha    56.10713322711195
_cell_angle_beta     90.0
_cell_angle_gamma    90.0

_space_group_name_H-M_alt    "P 1"
_space_group_IT_number       1

loop_
  _space_group_symop_operation_xyz
  'x, y, z'

loop_
  _atom_site_type_symbol
  _atom_site_label
  _atom_site_symmetry_multiplicity
  _atom_site_fract_x
  _atom_site_fract_y
  _atom_site_fract_z
  _atom_site_occupancy
  Sn  Sn1       1.0  0.13618921  0.7446821299999999  0.5574566599999999  1.0000
  Sn  Sn2       1.0  0.86381079  0.7446821299999999  0.05745665999999998  1.0000
  Sn  Sn3       1.0  0.39582960000000006  0.20372868999999993  0.0404922  1.0000
  Sn  Sn4       1.0  0.6041704  0.20372868999999993  0.5404922  1.0000
  P   P1        1.0  0.64450796  0.8759217100000001  0.31140674999999995  1.0000
  P   P2        1.0  0.35549204  0.8759217100000001  0.8114067499999997  1.0000
  P   P3        1.0  0.8632794800000001  0.12459030999999997  0.18191414  1.0000
  P   P4        1.0  0.13672052  0.12459030999999993  0.68191414  1.0000
  S   S1        1.0  0.43097844  0.7161319699999998  0.7131206399999999  1.0000
  S   S2        1.0  0.5690215600000001  0.7161319699999998  0.21312064000000003  1.0000
  S   S3        1.0  0.55092731  0.10358816999999992  0.7902934  1.0000
  S   S4        1.0  0.4490726900000001  0.10358816999999998  0.2902934  1.0000
  S   S5        1.0  0.2480358  0.34678909  0.49689725  1.0000
  S   S6        1.0  0.7519642000000002  0.34678908999999997  0.9968972499999998  1.0000
  S   S7        1.0  0.04749543  0.2987571399999999  0.7669594599999998  1.0000
  S   S8        1.0  0.95250457  0.2987571399999999  0.26695945999999987  1.0000
  S   S9        1.0  0.9503771200000001  0.8929068699999998  0.6931250899999999  1.0000
  S   S10       1.0  0.04962288  0.8929068699999998  0.19312508999999992  1.0000
  S   S11       1.0  0.26786932  0.64780393  0.0016354099999999878  1.0000
  S   S12       1.0  0.73213068  0.64780393  0.5016354099999999  1.0000
data_image1
_chemical_formula_structural       Sn4P4S12
_chemical_formula_sum              "Sn4 P4 S12"
_cell_length_a       7.57141576
_cell_length_b       6.596566975487068
_cell_length_c       11.859499654632444
_cell_angle_alpha    56.10713322711195
_cell_angle_beta     90.0
_cell_angle_gamma    90.0

_space_group_name_H-M_alt    "P 1"
_space_group_IT_number       1

loop_
  _space_group_symop_operation_xyz
  'x, y, z'

loop_
  _atom_site_type_symbol
  _atom_site_label
  _atom_site_symmetry_multiplicity
  _atom_site_fract_x
  _atom_site_fract_y
  _atom_site_fract_z
  _atom_site_occupancy
  Sn  Sn1       1.0  0.151147503491733  0.787556806473083  0.5474708061194647  1.0000
  Sn  Sn2       1.0  0.8539707628804379  0.7334256551395882  0.06363859643939015  1.0000
  Sn  Sn3       1.0  0.40903083657663325  0.19718174883360579  0.045363842727056874  1.0000
  Sn  Sn4       1.0  0.598550064419624  0.19969216285389355  0.5391024783607943  1.0000
  P   P1        1.0  0.6488056680364814  0.8312311592578507  0.3280302332048087  1.0000
  P   P2        1.0  0.28741327003501393  0.8661064751050774  0.8177890291279997  1.0000
  P   P3        1.0  0.8865362008975919  0.1313341659997339  0.16068923597087728  1.0000
  P   P4        1.0  0.12494261254027372  0.18457747091283475  0.6514668751899306  1.0000
  S   S1        1.0  0.38638094220430946  0.6520451809540677  0.7540442802195035  1.0000
  S   S2        1.0  0.545819435003302  0.7003257734504781  0.20293503795482706  1.0000
  S   S3        1.0  0.5138813924690835  0.05865319434499646  0.8007569528036539  1.0000
  S   S4        1.0  0.5141618649385215  0.1485560280828059  0.28330512482887454  1.0000
  S   S5        1.0  0.27128776017262207  0.35667788180211546  0.4749357501514828  1.0000
  S   S6        1.0  0.8113672153819123  0.38712126198891855  0.963366548227222  1.0000
  S   S7        1.0  0.046656005626986005  0.3340666337244955  0.741675484363153  1.0000
  S   S8        1.0  0.9974801115123687  0.2555798665406188  0.2617986824904136  1.0000
  S   S9        1.0  0.9693031073554718  0.9193551534741632  0.6818478875330027  1.0000
  S   S10       1.0  0.012739064609319097  0.7656862351940549  0.2454715429230561  1.0000
  S   S11       1.0  0.21939935689550702  0.7107061747080723  0.015757662023950982  1.0000
  S   S12       1.0  0.7209174666900436  0.6284147619755961  0.5316396955521092  1.0000
data_image2
_chemical_formula_structural       Sn4P4S12
_chemical_formula_sum              "Sn4 P4 S12"
_cell_length_a       7.57141576
_cell_length_b       6.596566975487068
_cell_length_c       11.859499654632444
_cell_angle_alpha    56.10713322711195
_cell_angle_beta     90.0
_cell_angle_gamma    90.0

_space_group_name_H-M_alt    "P 1"
_space_group_IT_number       1

loop_
  _space_group_symop_operation_xyz
  'x, y, z'

loop_
  _atom_site_type_symbol
  _atom_site_label
  _atom_site_symmetry_multiplicity
  _atom_site_fract_x
  _atom_site_fract_y
  _atom_site_fract_z
  _atom_site_occupancy
  Sn  Sn1       1.0  0.1839489486748198  0.8349046549826873  0.5051584307517744  1.0000
  Sn  Sn2       1.0  0.8583742348058914  0.7089149911988116  0.0539702872698018  1.0000
  Sn  Sn3       1.0  0.3939873050343197  0.2528734256933316  0.03416169300905489  1.0000
  Sn  Sn4       1.0  0.613095290761999  0.24620090143424994  0.5402586374474254  1.0000
  P   P1        1.0  0.5998010751881321  0.856311847850461  0.32425471133513817  1.0000
  P   P2        1.0  0.36612998972781735  0.8178933318897474  0.8372561450814568  1.0000
  P   P3        1.0  0.8664889632935954  0.0987660760326813  0.17993814593021223  1.0000
  P   P4        1.0  0.12898828552227715  0.12183125389323789  0.6810153671500532  1.0000
  S   S1        1.0  0.40567918676406794  0.5595601449974293  0.7831044122405701  1.0000
  S   S2        1.0  0.48743294289724826  0.6360145708256578  0.26665296079105255  1.0000
  S   S3        1.0  0.5425423489055166  0.06958618397626325  0.8113843286739063  1.0000
  S   S4        1.0  0.4690771556499202  0.14554742651693003  0.2923121920298104  1.0000
  S   S5        1.0  0.26066146375675475  0.3381874981080362  0.5111816741083504  1.0000
  S   S6        1.0  0.8289177406306929  0.3535879857634987  0.9869102874696157  1.0000
  S   S7        1.0  0.048505774743704134  0.29424118095180724  0.7674307359351301  1.0000
  S   S8        1.0  0.9423816757777558  0.2097365496436057  0.30366564650290573  1.0000
  S   S9        1.0  0.9609405719324082  0.9468208971294201  0.6403798294178483  1.0000
  S   S10       1.0  0.9743781000961083  0.7786893410116271  0.22478273342683555  1.0000
  S   S11       1.0  0.2332139778116267  0.599590726500086  0.0169584326085456  1.0000
  S   S12       1.0  0.7066302804788103  0.6336330541792344  0.5224081355339028  1.0000
data_image3
_chemical_formula_structural       Sn4P4S12
_chemical_formula_sum              "Sn4 P4 S12"
_cell_length_a       7.57141576
_cell_length_b       6.596566975487068
_cell_length_c       11.859499654632444
_cell_angle_alpha    56.10713322711195
_cell_angle_beta     90.0
_cell_angle_gamma    90.0

_space_group_name_H-M_alt    "P 1"
_space_group_IT_number       1

loop_
  _space_group_symop_operation_xyz
  'x, y, z'

loop_
  _atom_site_type_symbol
  _atom_site_label
  _atom_site_symmetry_multiplicity
  _atom_site_fract_x
  _atom_site_fract_y
  _atom_site_fract_z
  _atom_site_occupancy
  Sn  Sn1       1.0  0.21154195307410717  0.7800415432705166  0.527045855095167  1.0000
  Sn  Sn2       1.0  0.8679969666075448  0.7213236955456788  0.040854154667989404  1.0000
  Sn  Sn3       1.0  0.3893452550873712  0.22605643207107895  0.03722778024077479  1.0000
  Sn  Sn4       1.0  0.6072983270132131  0.31255251298483483  0.5187953108802704  1.0000
  P   P1        1.0  0.6133648089407111  0.9001030993700072  0.30935336001142494  1.0000
  P   P2        1.0  0.33420277307212426  0.8559046541750664  0.8308782604884557  1.0000
  P   P3        1.0  0.8950832821243938  0.09784677914074147  0.17675787519241173  1.0000
  P   P4        1.0  0.08666870623218245  0.06078265249107631  0.6973526607007996  1.0000
  S   S1        1.0  0.48795423826927287  0.697635932785766  0.7481086966541047  1.0000
  S   S2        1.0  0.5564146198327354  0.6828906865864829  0.23498884154267669  1.0000
  S   S3        1.0  0.538229759582187  0.061613029023746026  0.8412979491357829  1.0000
  S   S4        1.0  0.3995169772270679  0.09555506036503832  0.30588862945707224  1.0000
  S   S5        1.0  0.18542706769580972  0.2889561321237145  0.5194540070990239  1.0000
  S   S6        1.0  0.7734816786371261  0.2950393353103828  0.979028882236985  1.0000
  S   S7        1.0  0.05448249374625144  0.17481520364859712  0.8244211719580182  1.0000
  S   S8        1.0  0.9540819154373321  0.16225062982823543  0.3135363135972476  1.0000
  S   S9        1.0  0.8696994047986885  0.9610122633319128  0.6217272400782061  1.0000
  S   S10       1.0  0.04033580402660787  0.8158707489671582  0.22723219462036298  1.0000
  S   S11       1.0  0.19137673684342374  0.6298509671604453  0.049294369473364574  1.0000
  S   S12       1.0  0.7428825020174568  0.6946740059445405  0.5034858632839115  1.0000
data_image4
_chemical_formula_structural       Sn4P4S12
_chemical_formula_sum              "Sn4 P4 S12"
_cell_length_a       7.57141576
_cell_length_b       6.596566975487068
_cell_length_c       11.859499654632444
_cell_angle_alpha    56.10713322711195
_cell_angle_beta     90.0
_cell_angle_gamma    90.0

_space_group_name_H-M_alt    "P 1"
_space_group_IT_number       1

loop_
  _space_group_symop_operation_xyz
  'x, y, z'

loop_
  _atom_site_type_symbol
  _atom_site_label
  _atom_site_symmetry_multiplicity
  _atom_site_fract_x
  _atom_site_fract_y
  _atom_site_fract_z
  _atom_site_occupancy
  Sn  Sn1       1.0  0.16584999389358057  0.6751811660256288  0.5831036440718597  1.0000
  Sn  Sn2       1.0  0.8783847089030092  0.7707154860880787  0.02977900658203152  1.0000
  Sn  Sn3       1.0  0.3902186278573591  0.13293949985668974  0.021873612604069833  1.0000
  Sn  Sn4       1.0  0.6203630477326507  0.26237160285113803  0.5755835317423568  1.0000
  P   P1        1.0  0.6545732914706143  0.8712459203377563  0.31779293006104187  1.0000
  P   P2        1.0  0.32532662528883  0.8813509815637525  0.8000384314699427  1.0000
  P   P3        1.0  0.8776053961369978  0.1000344799829761  0.18343847004312014  1.0000
  P   P4        1.0  0.07235235852637305  0.15204171249258402  0.6683265467482248  1.0000
  S   S1        1.0  0.4429322208274404  0.6563141298635711  0.7471475269671204  1.0000
  S   S2        1.0  0.5129106299744003  0.7138704979799307  0.23633291978548573  1.0000
  S   S3        1.0  0.4883784235750011  0.18118407059892427  0.782288459183554  1.0000
  S   S4        1.0  0.44789414711357123  0.18597310394244168  0.24043507403767825  1.0000
  S   S5        1.0  0.2611228440399766  0.4401871006683957  0.48764249053132563  1.0000
  S   S6        1.0  0.7333144335067147  0.27704285091265163  0.009412216903592618  1.0000
  S   S7        1.0  0.024029200572213492  0.33713002594330355  0.7675516631513599  1.0000
  S   S8        1.0  0.9984895441915133  0.29976612828527927  0.22548107387538233  1.0000
  S   S9        1.0  0.8814003142634229  0.9709016296005594  0.6840331869114874  1.0000
  S   S10       1.0  0.05315180017717263  0.8260918263932244  0.18060443106307741  1.0000
  S   S11       1.0  0.3403004556212444  0.5883948809195383  0.01945409925686353  1.0000
  S   S12       1.0  0.6866628391585888  0.7281288555440086  0.5142391796874219  1.0000
data_image5
_chemical_formula_structural       Sn4P4S12
_chemical_formula_sum              "Sn4 P4 S12"
_cell_length_a       7.57141576
_cell_length_b       6.596566975487068
_cell_length_c       11.859499654632444
_cell_angle_alpha    56.10713322711195
_cell_angle_beta     90.0
_cell_angle_gamma    90.0

_space_group_name_H-M_alt    "P 1"
_space_group_IT_number       1

loop_
  _space_group_symop_operation_xyz
  'x, y, z'

loop_
  _atom_site_type_symbol
  _atom_site_label
  _atom_site_symmetry_multiplicity
  _atom_site_fract_x
  _atom_site_fract_y
  _atom_site_fract_z
  _atom_site_occupancy
  Sn  Sn1       1.0  0.1536516603051336  0.7223612182841858  0.5985718361861196  1.0000
  Sn  Sn2       1.0  0.8360417188226457  0.7434111156391464  0.023878450466483774  1.0000
  Sn  Sn3       1.0  0.41658539845699744  0.1114307415085689  0.03302302640936441  1.0000
  Sn  Sn4       1.0  0.6264546725173927  0.26565625466278237  0.5326289444963349  1.0000
  P   P1        1.0  0.6439754076149661  0.9585226314826197  0.26531002958417294  1.0000
  P   P2        1.0  0.3335386978126094  0.936153127371542  0.803865230909121  1.0000
  P   P3        1.0  0.8841227996923308  0.09760482047537478  0.18156290923041965  1.0000
  P   P4        1.0  0.07714832406486326  0.12283693671428646  0.6917102884285434  1.0000
  S   S1        1.0  0.49830332029829627  0.7389501360137692  0.7527152988519682  1.0000
  S   S2        1.0  0.6315970352676472  0.6712414663153842  0.20866105115270794  1.0000
  S   S3        1.0  0.5167498182566208  0.21199585049515426  0.7656419228068623  1.0000
  S   S4        1.0  0.47590539757792927  0.20537536487175817  0.216748216006917  1.0000
  S   S5        1.0  0.16185343509606764  0.35607921193851283  0.5131557271218383  1.0000
  S   S6        1.0  0.7943457240661109  0.26677998490478005  0.9831348327824889  1.0000
  S   S7        1.0  0.033676109356276566  0.1986087564163787  0.8478029108192551  1.0000
  S   S8        1.0  0.9658294812834096  0.2894183236950939  0.26177141364464623  1.0000
  S   S9        1.0  0.8957692578818313  0.8919715155973151  0.7058673550739993  1.0000
  S   S10       1.0  0.009355507442752488  0.7952188484894624  0.24794981185302423  1.0000
  S   S11       1.0  0.2429023938149442  0.7421917191359328  0.01671661926949265  1.0000
  S   S12       1.0  0.7162967144594661  0.7269258350046736  0.4824466182214297  1.0000
data_image6
_chemical_formula_structural       Sn4P4S12
_chemical_formula_sum              "Sn4 P4 S12"
_cell_length_a       7.57141576
_cell_length_b       6.596566975487068
_cell_length_c       11.859499654632444
_cell_angle_alpha    56.10713322711195
_cell_angle_beta     90.0
_cell_angle_gamma    90.0

_space_group_name_H-M_alt    "P 1"
_space_group_IT_number       1

loop_
  _space_group_symop_operation_xyz
  'x, y, z'

loop_
  _atom_site_type_symbol
  _atom_site_label
  _atom_site_symmetry_multiplicity
  _atom_site_fract_x
  _atom_site_fract_y
  _atom_site_fract_z
  _atom_site_occupancy
  Sn  Sn1       1.0  0.16050076483513234  0.775442997481715  0.5593909269380569  1.0000
  Sn  Sn2       1.0  0.7871385849943434  0.7074099609065699  0.02416661993067869  1.0000
  Sn  Sn3       1.0  0.4181677501501026  0.13909357823523233  0.028970088612625695  1.0000
  Sn  Sn4       1.0  0.6063702774879873  0.2258683844006887  0.5083084689251887  1.0000
  P   P1        1.0  0.6776653143000241  0.9088431301390162  0.3164825990027005  1.0000
  P   P2        1.0  0.36762244688396706  0.0009428076152344644  0.807980969403644  1.0000
  P   P3        1.0  0.9461875791729661  0.0809760457061068  0.20905712929666068  1.0000
  P   P4        1.0  0.10428007575592022  0.052692191474652525  0.7231549346808884  1.0000
  S   S1        1.0  0.4289901913874818  0.7687703898085441  0.7366866002003067  1.0000
  S   S2        1.0  0.5954671604671422  0.6632096881822809  0.2642348604132823  1.0000
  S   S3        1.0  0.5218840519543164  0.31013666130626916  0.7189034840334091  1.0000
  S   S4        1.0  0.440803076854615  0.10053817461733483  0.3157742890217897  1.0000
  S   S5        1.0  0.16656672925797564  0.26727952138947175  0.5110655857147378  1.0000
  S   S6        1.0  0.8314697097482587  0.2398932704822691  0.02553684547056978  1.0000
  S   S7        1.0  0.007916328989138615  0.24360810192197657  0.8011971321863008  1.0000
  S   S8        1.0  0.8729411782480251  0.3650145478721862  0.2738210065150337  1.0000
  S   S9        1.0  0.9610810501979921  0.7282273201867987  0.7803057076331505  1.0000
  S   S10       1.0  0.158446358774105  0.89503173381114  0.1882268441879993  1.0000
  S   S11       1.0  0.3100832992375842  0.7656648103971644  0.01803512965291874  1.0000
  S   S12       1.0  0.7188254337507902  0.801377202581647  0.5091181678420051  1.0000
data_image7
_chemical_formula_structural       Sn4P4S12
_chemical_formula_sum              "Sn4 P4 S12"
_cell_length_a       7.57141576
_cell_length_b       6.596566975487068
_cell_length_c       11.859499654632444
_cell_angle_alpha    56.10713322711195
_cell_angle_beta     90.0
_cell_angle_gamma    90.0

_space_group_name_H-M_alt    "P 1"
_space_group_IT_number       1

loop_
  _space_group_symop_operation_xyz
  'x, y, z'

loop_
  _atom_site_type_symbol
  _atom_site_label
  _atom_site_symmetry_multiplicity
  _atom_site_fract_x
  _atom_site_fract_y
  _atom_site_fract_z
  _atom_site_occupancy
  Sn  Sn1       1.0  0.13107916354845991  0.8162874904712609  0.5097800980328399  1.0000
  Sn  Sn2       1.0  0.7834588306567293  0.7658743214855793  0.0014123316068024368  1.0000
  Sn  Sn3       1.0  0.3902868738185252  0.09728296714866638  0.03341124736387373  1.0000
  Sn  Sn4       1.0  0.6430649233408233  0.20665912703841122  0.5064515275063092  1.0000
  P   P1        1.0  0.6838022769769321  0.9114442195484864  0.38475444657905683  1.0000
  P   P2        1.0  0.3653267903447407  0.8982214302343983  0.7931828847135737  1.0000
  P   P3        1.0  0.8841396233653656  0.09438223283627138  0.22902647718460573  1.0000
  P   P4        1.0  0.08540922520146291  0.09858852947463234  0.6925417595996236  1.0000
  S   S1        1.0  0.5150238791551359  0.7329565199716129  0.7351645609674865  1.0000
  S   S2        1.0  0.6272022884705123  0.7755078080647083  0.25280282059246373  1.0000
  S   S3        1.0  0.4636934965766538  0.2596994540692957  0.7784495971207541  1.0000
  S   S4        1.0  0.42797178825427484  0.13609212079856298  0.3329705210335814  1.0000
  S   S5        1.0  0.0930355286089527  0.27537723126790986  0.4969471675860784  1.0000
  S   S6        1.0  0.9071198833539106  0.33869835035051177  0.03132679873638433  1.0000
  S   S7        1.0  0.9400055687238372  0.17539072962412056  0.8412536442059172  1.0000
  S   S8        1.0  0.9164568420005553  0.37713915488271976  0.2669373765852655  1.0000
  S   S9        1.0  0.014995645332623209  0.7449144231421757  0.7612063031287475  1.0000
  S   S10       1.0  0.11091484926375748  0.8893098923151688  0.27282700801670473  1.0000
  S   S11       1.0  0.3581154322053078  0.6915367007320354  0.01879818626071433  1.0000
  S   S12       1.0  0.8101522834127951  0.6468207553054868  0.5701446220469369  1.0000
data_image8
_chemical_formula_structural       Sn4P4S12
_chemical_formula_sum              "Sn4 P4 S12"
_cell_length_a       7.57141576
_cell_length_b       6.596566975487068
_cell_length_c       11.859499654632444
_cell_angle_alpha    56.10713322711195
_cell_angle_beta     90.0
_cell_angle_gamma    90.0

_space_group_name_H-M_alt    "P 1"
_space_group_IT_number       1

loop_
  _space_group_symop_operation_xyz
  'x, y, z'

loop_
  _atom_site_type_symbol
  _atom_site_label
  _atom_site_symmetry_multiplicity
  _atom_site_fract_x
  _atom_site_fract_y
  _atom_site_fract_z
  _atom_site_occupancy
  Sn  Sn1       1.0  0.10933317338817569  0.8413262261497373  0.5275161589863745  1.0000
  Sn  Sn2       1.0  0.7808170666070802  0.7572116651763315  0.010940128868927717  1.0000
  Sn  Sn3       1.0  0.36937232140170967  0.06166731856743714  0.03146349329600873  1.0000
  Sn  Sn4       1.0  0.7471211173624029  0.26930051537533445  0.4570099768838131  1.0000
  P   P1        1.0  0.660648113214527  0.853067976839042  0.37586946269628996  1.0000
  P   P2        1.0  0.36030776519940105  0.9648949327542315  0.806037506726975  1.0000
  P   P3        1.0  0.9129679450987798  0.13239184515360422  0.22504463287133  1.0000
  P   P4        1.0  0.0881051689089102  0.011999251411761178  0.7235465057233407  1.0000
  S   S1        1.0  0.5155930848091056  0.8121469755222387  0.7397518860409702  1.0000
  S   S2        1.0  0.5887825580093978  0.7281391573555577  0.243335868524961  1.0000
  S   S3        1.0  0.37352576322500813  0.3069279208500537  0.7559464058004753  1.0000
  S   S4        1.0  0.521337937691877  0.16458070483313333  0.3606092636498146  1.0000
  S   S5        1.0  0.16429414174245466  0.32884109423746527  0.5472290306147438  1.0000
  S   S6        1.0  0.7583623976987244  0.27181142568978045  0.03150464455046542  1.0000
  S   S7        1.0  0.013771122310167798  0.167958706781688  0.8252314161458071  1.0000
  S   S8        1.0  0.9996212826899327  0.37597929214666415  0.2739744220253769  1.0000
  S   S9        1.0  0.9549250155694395  0.702621797092454  0.7786617955146102  1.0000
  S   S10       1.0  0.06899636796653026  0.8517950870309297  0.25398569183467845  1.0000
  S   S11       1.0  0.327405676369213  0.6677783956627599  0.03440701120494027  1.0000
  S   S12       1.0  0.6783530869798164  0.5417591959649145  0.5737820056383993  1.0000
data_image9
_chemical_formula_structural       Sn4P4S12
_chemical_formula_sum              "Sn4 P4 S12"
_cell_length_a       7.57141576
_cell_length_b       6.596566975487068
_cell_length_c       11.859499654632444
_cell_angle_alpha    56.10713322711195
_cell_angle_beta     90.0
_cell_angle_gamma    90.0

_space_group_name_H-M_alt    "P 1"
_space_group_IT_number       1

loop_
  _space_group_symop_operation_xyz
  'x, y, z'

loop_
  _atom_site_type_symbol
  _atom_site_label
  _atom_site_symmetry_multiplicity
  _atom_site_fract_x
  _atom_site_fract_y
  _atom_site_fract_z
  _atom_site_occupancy
  Sn  Sn1       1.0  0.07420495869379502  0.8573367286359099  0.5236983524247157  1.0000
  Sn  Sn2       1.0  0.7653749167105394  0.756198206835267  0.03183095395887896  1.0000
  Sn  Sn3       1.0  0.3791670582335944  0.10434871982724334  0.032293692595857036  1.0000
  Sn  Sn4       1.0  0.7898170911452381  0.3419243655964911  0.454331329176642  1.0000
  P   P1        1.0  0.6452576264992851  0.8284326365741252  0.3211908503393607  1.0000
  P   P2        1.0  0.37012505513585137  0.9269902111107287  0.8145497580368998  1.0000
  P   P3        1.0  0.8685604805458583  0.08590363180515281  0.2034532973297428  1.0000
  P   P4        1.0  0.08785819917038688  0.9836016676058976  0.7472300658041763  1.0000
  S   S1        1.0  0.5411296547730629  0.7266273613293446  0.7931353925698849  1.0000
  S   S2        1.0  0.4925483452444532  0.5668104710447397  0.2982360901547227  1.0000
  S   S3        1.0  0.4885586931786526  0.24114982646236507  0.7954624208770719  1.0000
  S   S4        1.0  0.5175618010843565  0.07921052767349208  0.31137132541211665  1.0000
  S   S5        1.0  0.1405873004767098  0.2559521636162511  0.49633302631759363  1.0000
  S   S6        1.0  0.6943866470581496  0.3137377286634421  0.03908250134085911  1.0000
  S   S7        1.0  0.9701688966413727  0.08881508278845308  0.8505011545305883  1.0000
  S   S8        1.0  0.97017890313312  0.3249024335981892  0.24807554978168564  1.0000
  S   S9        1.0  0.024232884870270865  0.6504286156644455  0.808131744280355  1.0000
  S   S10       1.0  0.13727115594071992  0.9128848262473546  0.24055727384772488  1.0000
  S   S11       1.0  0.2795528082710767  0.749692992197908  0.004208149956382112  1.0000
  S   S12       1.0  0.7521768788518152  0.6613574642639344  0.5200748460387471  1.0000
data_image10
_chemical_formula_structural       Sn4P4S12
_chemical_formula_sum              "Sn4 P4 S12"
_cell_length_a       7.57141576
_cell_length_b       6.596566975487068
_cell_length_c       11.859499654632444
_cell_angle_alpha    56.10713322711195
_cell_angle_beta     90.0
_cell_angle_gamma    90.0

_space_group_name_H-M_alt    "P 1"
_space_group_IT_number       1

loop_
  _space_group_symop_operation_xyz
  'x, y, z'

loop_
  _atom_site_type_symbol
  _atom_site_label
  _atom_site_symmetry_multiplicity
  _atom_site_fract_x
  _atom_site_fract_y
  _atom_site_fract_z
  _atom_site_occupancy
  Sn  Sn1       1.0  0.11124283440405466  0.7754892258880421  0.5515239210479042  1.0000
  Sn  Sn2       1.0  0.7736942868422099  0.8216601308540383  0.04206098627749375  1.0000
  Sn  Sn3       1.0  0.3665004235091238  0.17872807344256372  0.019166154385093236  1.0000
  Sn  Sn4       1.0  0.7684863205725162  0.34370476081620177  0.42731224009180296  1.0000
  P   P1        1.0  0.605482734740032  0.8716977210688782  0.3351752742586374  1.0000
  P   P2        1.0  0.40462618712879933  0.8805229564921149  0.8552940293085902  1.0000
  P   P3        1.0  0.8667252586275274  0.09928451432508453  0.16917581014088154  1.0000
  P   P4        1.0  0.13662967787849833  0.9261589263964127  0.7845426568249206  1.0000
  S   S1        1.0  0.5979060650000254  0.7114159022650185  0.8357555546494502  1.0000
  S   S2        1.0  0.5204861432479866  0.6402245964405624  0.2722416112148044  1.0000
  S   S3        1.0  0.4697543521367291  0.22977908336065195  0.7238308503846781  1.0000
  S   S4        1.0  0.426197593342663  0.0901126715555649  0.3286046464788747  1.0000
  S   S5        1.0  0.11903575326354555  0.26460155080867204  0.5713792114597366  1.0000
  S   S6        1.0  0.804908774807294  0.23970916145820265  0.9820474921479492  1.0000
  S   S7        1.0  0.9539736930000594  0.11843718343350029  0.8131137117329983  1.0000
  S   S8        1.0  0.9139968222686408  0.34696880205167435  0.2013802490553251  1.0000
  S   S9        1.0  0.07551801319605866  0.6268113842353623  0.7850042527851548  1.0000
  S   S10       1.0  0.9996810363270451  0.7564256203522616  0.2851443936361642  1.0000
  S   S11       1.0  0.2786499324828583  0.6884673653628103  0.05817053534756631  1.0000
  S   S12       1.0  0.7637648262814901  0.6821624225386348  0.5007398380708604  1.0000
data_image11
_chemical_formula_structural       Sn4P4S12
_chemical_formula_sum              "Sn4 P4 S12"
_cell_length_a       7.57141576
_cell_length_b       6.596566975487068
_cell_length_c       11.859499654632444
_cell_angle_alpha    56.10713322711195
_cell_angle_beta     90.0
_cell_angle_gamma    90.0

_space_group_name_H-M_alt    "P 1"
_space_group_IT_number       1

loop_
  _space_group_symop_operation_xyz
  'x, y, z'

loop_
  _atom_site_type_symbol
  _atom_site_label
  _atom_site_symmetry_multiplicity
  _atom_site_fract_x
  _atom_site_fract_y
  _atom_site_fract_z
  _atom_site_occupancy
  Sn  Sn1       1.0  0.12942964168344778  0.7148104322435794  0.5549638923438466  1.0000
  Sn  Sn2       1.0  0.8211467134454649  0.8061698754534494  0.05748718852538935  1.0000
  Sn  Sn3       1.0  0.388553090031871  0.18492050104121552  0.014869330031233462  1.0000
  Sn  Sn4       1.0  0.7616307131156439  0.2665524339394992  0.4382218170327278  1.0000
  P   P1        1.0  0.5905871646821054  0.9134259129527806  0.32568287338021396  1.0000
  P   P2        1.0  0.40223493901076746  0.9297626806833055  0.8472987280440979  1.0000
  P   P3        1.0  0.8471690653957803  0.09410205754530993  0.20131937597718977  1.0000
  P   P4        1.0  0.12342177584984172  0.026917680271862768  0.7263713778616551  1.0000
  S   S1        1.0  0.5931840833459486  0.6913570282771888  0.8877665144096496  1.0000
  S   S2        1.0  0.543075866373831  0.7123693764131692  0.2546973909798282  1.0000
  S   S3        1.0  0.3966584195350844  0.29874488120511933  0.6931120384845335  1.0000
  S   S4        1.0  0.308632375069432  0.05510830270674588  0.30838988098853987  1.0000
  S   S5        1.0  0.15525934618819343  0.19159115493048723  0.5176153889546595  1.0000
  S   S6        1.0  0.7546232864025013  0.20137950223509188  0.022849014285720726  1.0000
  S   S7        1.0  0.9264477150292634  0.26297249891688956  0.7491677564619464  1.0000
  S   S8        1.0  0.9646037064562563  0.30694456855253227  0.2586946997130229  1.0000
  S   S9        1.0  0.05670940949737102  0.6743640740208041  0.8220597419480168  1.0000
  S   S10       1.0  0.021874670210660706  0.8147771323479812  0.2238929245896244  1.0000
  S   S11       1.0  0.28697696183399934  0.7346668627310676  0.04192614373128471  1.0000
  S   S12       1.0  0.6659330163007627  0.815652237375577  0.5268282422035474  1.0000
data_image12
_chemical_formula_structural       Sn4P4S12
_chemical_formula_sum              "Sn4 P4 S12"
_cell_length_a       7.57141576
_cell_length_b       6.596566975487068
_cell_length_c       11.859499654632444
_cell_angle_alpha    56.10713322711195
_cell_angle_beta     90.0
_cell_angle_gamma    90.0

_space_group_name_H-M_alt    "P 1"
_space_group_IT_number       1

loop_
  _space_group_symop_operation_xyz
  'x, y, z'

loop_
  _atom_site_type_symbol
  _atom_site_label
  _atom_site_symmetry_multiplicity
  _atom_site_fract_x
  _atom_site_fract_y
  _atom_site_fract_z
  _atom_site_occupancy
  Sn  Sn1       1.0  0.11998560327242559  0.737992082921814  0.5710049612526747  1.0000
  Sn  Sn2       1.0  0.8696477155577846  0.7489458281685992  0.08721895293602963  1.0000
  Sn  Sn3       1.0  0.346348474479185  0.18423601483144272  0.9767244901444815  1.0000
  Sn  Sn4       1.0  0.765945300391911  0.23093651184334663  0.44152344018675005  1.0000
  P   P1        1.0  0.6267070295729208  0.8584442312777929  0.3238359844917907  1.0000
  P   P2        1.0  0.3566632802478355  0.9307636564321455  0.840446794168819  1.0000
  P   P3        1.0  0.8208892803474033  0.1019973632228843  0.165140160661297  1.0000
  P   P4        1.0  0.14215898923009546  0.1699268822587962  0.7086297437384715  1.0000
  S   S1        1.0  0.6061586928226362  0.8965412394550405  0.7419648651858579  1.0000
  S   S2        1.0  0.5048788628875355  0.5534697576715817  0.3439658204472976  1.0000
  S   S3        1.0  0.3750404848101574  0.31680675556731075  0.7186609652332844  1.0000
  S   S4        1.0  0.39099143193872465  0.0630211682935535  0.29133191092853145  1.0000
  S   S5        1.0  0.15131705411395538  0.28840862963164116  0.5019974726299508  1.0000
  S   S6        1.0  0.7711027058154688  0.28015898015615737  0.9774798194578882  1.0000
  S   S7        1.0  0.8972688889660381  0.2433486605853726  0.7325491603022853  1.0000
  S   S8        1.0  0.9846690533412013  0.26941309857567874  0.2540836109792979  1.0000
  S   S9        1.0  0.1425931439427348  0.6618922996578688  0.8559180757931245  1.0000
  S   S10       1.0  0.9719762030777565  0.7721986347845784  0.305457903113532  1.0000
  S   S11       1.0  0.20839481470675475  0.7848115524096688  0.07020812135750702  1.0000
  S   S12       1.0  0.6837358281655391  0.7966798232134463  0.5344185790051054  1.0000
data_image13
_chemical_formula_structural       Sn4P4S12
_chemical_formula_sum              "Sn4 P4 S12"
_cell_length_a       7.57141576
_cell_length_b       6.596566975487068
_cell_length_c       11.859499654632444
_cell_angle_alpha    56.10713322711195
_cell_angle_beta     90.0
_cell_angle_gamma    90.0

_space_group_name_H-M_alt    "P 1"
_space_group_IT_number       1

loop_
  _space_group_symop_operation_xyz
  'x, y, z'

loop_
  _atom_site_type_symbol
  _atom_site_label
  _atom_site_symmetry_multiplicity
  _atom_site_fract_x
  _atom_site_fract_y
  _atom_site_fract_z
  _atom_site_occupancy
  Sn  Sn1       1.0  0.07146279637671903  0.8054662584566474  0.5199908359387122  1.0000
  Sn  Sn2       1.0  0.8558968870108136  0.7033117716104595  0.12408541261050371  1.0000
  Sn  Sn3       1.0  0.3507580129736102  0.20222667517126802  0.9614575115037158  1.0000
  Sn  Sn4       1.0  0.7604075233791835  0.20459170997152176  0.4671952223425901  1.0000
  P   P1        1.0  0.5440859286906875  0.7903824116961918  0.40676689898337065  1.0000
  P   P2        1.0  0.3680062213128089  0.9102223058454222  0.8181763441123456  1.0000
  P   P3        1.0  0.7955088785012447  0.04854467984115882  0.2614853675053416  1.0000
  P   P4        1.0  0.182632196139447  0.21147453985760747  0.690629634694094  1.0000
  S   S1        1.0  0.6205018335294096  0.8306929714487289  0.654956801109004  1.0000
  S   S2        1.0  0.5041253479074891  0.5605497771209731  0.30126657842459875  1.0000
  S   S3        1.0  0.3838830168847375  0.4859191579775191  0.6828072065148252  1.0000
  S   S4        1.0  0.4839744185550692  0.138478060794189  0.28464716894120556  1.0000
  S   S5        1.0  0.09765181812185603  0.30857595487339073  0.4982044356660661  1.0000
  S   S6        1.0  0.7366909999565336  0.19549995856910918  0.04435391178697912  1.0000
  S   S7        1.0  0.9267700525815412  0.13609907251332423  0.7479716434085009  1.0000
  S   S8        1.0  0.009465279605107346  0.30780387093532074  0.26344103510329264  1.0000
  S   S9        1.0  0.21928291274244271  0.6952790630161326  0.8079113188614632  1.0000
  S   S10       1.0  0.02508283063905729  0.867021044439297  0.2777146016271042  1.0000
  S   S11       1.0  0.21658238922844886  0.8001818461187676  0.06081507660044287  1.0000
  S   S12       1.0  0.7516718201840561  0.6508660885975578  0.5819249691289229  1.0000
data_image14
_chemical_formula_structural       Sn4P4S12
_chemical_formula_sum              "Sn4 P4 S12"
_cell_length_a       7.57141576
_cell_length_b       6.596566975487068
_cell_length_c       11.859499654632444
_cell_angle_alpha    56.10713322711195
_cell_angle_beta     90.0
_cell_angle_gamma    90.0

_space_group_name_H-M_alt    "P 1"
_space_group_IT_number       1

loop_
  _space_group_symop_operation_xyz
  'x, y, z'

loop_
  _atom_site_type_symbol
  _atom_site_label
  _atom_site_symmetry_multiplicity
  _atom_site_fract_x
  _atom_site_fract_y
  _atom_site_fract_z
  _atom_site_occupancy
  Sn  Sn1       1.0  0.07042234299558214  0.8420496933993341  0.5284148056227798  1.0000
  Sn  Sn2       1.0  0.8136690276516415  0.7483256490332423  0.06938689879595648  1.0000
  Sn  Sn3       1.0  0.38454742428768895  0.2509852464737598  0.9533191428227112  1.0000
  Sn  Sn4       1.0  0.7151471800783054  0.2885659340561184  0.47722094264149756  1.0000
  P   P1        1.0  0.5709499726231343  0.7651989959742422  0.41559733523402564  1.0000
  P   P2        1.0  0.3447082642254153  0.8493876268658513  0.8364353617284191  1.0000
  P   P3        1.0  0.82409792227975  0.9915318997038127  0.2685378863571066  1.0000
  P   P4        1.0  0.1757022608773405  0.16946512339782396  0.67013816908008  1.0000
  S   S1        1.0  0.6712666364729676  0.7460704868896402  0.6856839504813309  1.0000
  S   S2        1.0  0.49227326285894774  0.6084532362489813  0.330584744177986  1.0000
  S   S3        1.0  0.34433814585398  0.4197091353365561  0.6483858760358071  1.0000
  S   S4        1.0  0.5015662596827168  0.1701653416628431  0.3057876054845203  1.0000
  S   S5        1.0  0.28932289474561024  0.1518463407204418  0.5203217970681684  1.0000
  S   S6        1.0  0.7153552614698728  0.13708977162879996  0.04970122676166544  1.0000
  S   S7        1.0  0.9335412594433173  0.08181152976994001  0.7801512909629985  1.0000
  S   S8        1.0  0.9589740261859746  0.25931459857260886  0.267711589485341  1.0000
  S   S9        1.0  0.17361543181808203  0.5988998341606455  0.8484487438122377  1.0000
  S   S10       1.0  0.010455535642586557  0.7969494921755866  0.25260883387995475  1.0000
  S   S11       1.0  0.2309438925279357  0.8770457558255123  0.013995534450334815  1.0000
  S   S12       1.0  0.8303919024516296  0.5111243792202891  0.6553850482980494  1.0000
data_image15
_chemical_formula_structural       Sn4P4S12
_chemical_formula_sum              "Sn4 P4 S12"
_cell_length_a       7.57141576
_cell_length_b       6.596566975487068
_cell_length_c       11.859499654632444
_cell_angle_alpha    56.10713322711195
_cell_angle_beta     90.0
_cell_angle_gamma    90.0

_space_group_name_H-M_alt    "P 1"
_space_group_IT_number       1

loop_
  _space_group_symop_operation_xyz
  'x, y, z'

loop_
  _atom_site_type_symbol
  _atom_site_label
  _atom_site_symmetry_multiplicity
  _atom_site_fract_x
  _atom_site_fract_y
  _atom_site_fract_z
  _atom_site_occupancy
  Sn  Sn1       1.0  0.08970247717707322  0.8258070333145797  0.5619502835323369  1.0000
  Sn  Sn2       1.0  0.7876473965210243  0.7141683534333507  0.05611146146477602  1.0000
  Sn  Sn3       1.0  0.3636721784419035  0.25384384720087055  0.9642819029390524  1.0000
  Sn  Sn4       1.0  0.6687670979043844  0.2962455789385991  0.49563143420852696  1.0000
  P   P1        1.0  0.6238356111410988  0.9441035609899046  0.32999745511483286  1.0000
  P   P2        1.0  0.352295622895289  0.752728046270355  0.8601309639900577  1.0000
  P   P3        1.0  0.8175103362959735  0.039567143087406643  0.17739065730741851  1.0000
  P   P4        1.0  0.24839491534770625  0.15332356893540236  0.6924024103656732  1.0000
  S   S1        1.0  0.7383455005618644  0.8030469032884661  0.6653368920344931  1.0000
  S   S2        1.0  0.41861685563371803  0.7250971391193327  0.32286534112114046  1.0000
  S   S3        1.0  0.33894752748339624  0.42276451495943235  0.7069819284864177  1.0000
  S   S4        1.0  0.5170798489164548  0.29330300138782145  0.20250886933843137  1.0000
  S   S5        1.0  0.32827389993074824  0.19918688800044082  0.5026797827050252  1.0000
  S   S6        1.0  0.7311661719928377  0.20015315734145078  0.9720971151968963  1.0000
  S   S7        1.0  0.024063299450107514  0.010409377908715088  0.7449191198594461  1.0000
  S   S8        1.0  0.9506462192071027  0.2100600152769475  0.268168911640303  1.0000
  S   S9        1.0  0.11215628948941636  0.5937515756480044  0.9158289383037953  1.0000
  S   S10       1.0  0.9540285667750956  0.6866371051395953  0.2634808651537153  1.0000
  S   S11       1.0  0.38564175973474674  0.7635979915195483  0.052774320348868385  1.0000
  S   S12       1.0  0.8018905335436094  0.49222244571344187  0.682530079010233  1.0000
data_image16
_chemical_formula_structural       Sn4P4S12
_chemical_formula_sum              "Sn4 P4 S12"
_cell_length_a       7.57141576
_cell_length_b       6.596566975487068
_cell_length_c       11.859499654632444
_cell_angle_alpha    56.10713322711195
_cell_angle_beta     90.0
_cell_angle_gamma    90.0

_space_group_name_H-M_alt    "P 1"
_space_group_IT_number       1

loop_
  _space_group_symop_operation_xyz
  'x, y, z'

loop_
  _atom_site_type_symbol
  _atom_site_label
  _atom_site_symmetry_multiplicity
  _atom_site_fract_x
  _atom_site_fract_y
  _atom_site_fract_z
  _atom_site_occupancy
  Sn  Sn1       1.0  0.05510294244793307  0.8057285102603786  0.5601979293336594  1.0000
  Sn  Sn2       1.0  0.7883830303613284  0.6741118838068565  0.048730434565930576  1.0000
  Sn  Sn3       1.0  0.3454034766025572  0.24892893774926778  0.963653450218353  1.0000
  Sn  Sn4       1.0  0.6185526984057694  0.3553436421918967  0.4538173091390208  1.0000
  P   P1        1.0  0.5659096328302119  0.001839076936317685  0.33526950765342434  1.0000
  P   P2        1.0  0.36485742679627986  0.7086864136219173  0.896471170947042  1.0000
  P   P3        1.0  0.8382856974346914  0.9516739859246108  0.24202378965000101  1.0000
  P   P4        1.0  0.25328127950498996  0.08855878578272618  0.7202723002462336  1.0000
  S   S1        1.0  0.7597645266016373  0.8289180838432253  0.7083538066856914  1.0000
  S   S2        1.0  0.40785163999112484  0.8186737298793435  0.29872081625760816  1.0000
  S   S3        1.0  0.44729563536660266  0.3385586458408329  0.6923319806119044  1.0000
  S   S4        1.0  0.5729084654118842  0.28646335769775216  0.09781310630767397  1.0000
  S   S5        1.0  0.28261315353019056  0.16912596424525145  0.5157263555729487  1.0000
  S   S6        1.0  0.9251767051362765  0.08643865666982714  0.03428687192819613  1.0000
  S   S7        1.0  0.031439218236887466  0.18325761587772224  0.7387755456517963  1.0000
  S   S8        1.0  0.9616661105939039  0.2110018977796327  0.27972186674457744  1.0000
  S   S9        1.0  0.12867594091359136  0.5183918155616252  0.9658084235698488  1.0000
  S   S10       1.0  0.9624343237393741  0.6518174111859523  0.34373119490888593  1.0000
  S   S11       1.0  0.45348246197703806  0.8781602181564079  0.0219858701467857  1.0000
  S   S12       1.0  0.7659303923625009  0.5828425162775136  0.6659363016107138  1.0000
data_image17
_chemical_formula_structural       Sn4P4S12
_chemical_formula_sum              "Sn4 P4 S12"
_cell_length_a       7.57141576
_cell_length_b       6.596566975487068
_cell_length_c       11.859499654632444
_cell_angle_alpha    56.10713322711195
_cell_angle_beta     90.0
_cell_angle_gamma    90.0

_space_group_name_H-M_alt    "P 1"
_space_group_IT_number       1

loop_
  _space_group_symop_operation_xyz
  'x, y, z'

loop_
  _atom_site_type_symbol
  _atom_site_label
  _atom_site_symmetry_multiplicity
  _atom_site_fract_x
  _atom_site_fract_y
  _atom_site_fract_z
  _atom_site_occupancy
  Sn  Sn1       1.0  0.0596354312418823  0.7149629181975048  0.5532805396626932  1.0000
  Sn  Sn2       1.0  0.8053180909326461  0.7018111220543481  0.029976525614993293  1.0000
  Sn  Sn3       1.0  0.34439759350075405  0.30522038954408864  0.9148410451054245  1.0000
  Sn  Sn4       1.0  0.6012562916801015  0.2978168202907114  0.5022706837558638  1.0000
  P   P1        1.0  0.571081105223246  0.0017101545467990142  0.290827418866122  1.0000
  P   P2        1.0  0.41486077292506046  0.8011923787437433  0.8949955802697893  1.0000
  P   P3        1.0  0.8837348678450458  0.9395324823730206  0.23597206390435138  1.0000
  P   P4        1.0  0.23864976959078718  0.12373593497276536  0.665667579907724  1.0000
  S   S1        1.0  0.6767442590210552  0.8927695228091039  0.7687663221498714  1.0000
  S   S2        1.0  0.3811552308830742  0.746752251900865  0.3481978144207047  1.0000
  S   S3        1.0  0.4666682616996615  0.2826613450736457  0.7184498307984651  1.0000
  S   S4        1.0  0.5766386680514265  0.3019927945054653  0.08909971831327261  1.0000
  S   S5        1.0  0.2689257524474171  0.2391383712483524  0.4724244727284076  1.0000
  S   S6        1.0  0.05483853835821928  0.04492527312324971  0.04588213378420325  1.0000
  S   S7        1.0  0.0176187638889696  0.2760614971338883  0.7222651248813965  1.0000
  S   S8        1.0  0.9001546922115595  0.1316615316399067  0.3240232067469385  1.0000
  S   S9        1.0  0.20532103136970448  0.6312484766325163  0.9966112311588773  1.0000
  S   S10       1.0  0.925763620571499  0.5757364679110317  0.33449241254317785  1.0000
  S   S11       1.0  0.4241699986576102  0.8673173763734745  0.04942089645703268  1.0000
  S   S12       1.0  0.7044900669085903  0.685537536227062  0.694914078734733  1.0000
data_image18
_chemical_formula_structural       Sn4P4S12
_chemical_formula_sum              "Sn4 P4 S12"
_cell_length_a       7.57141576
_cell_length_b       6.596566975487068
_cell_length_c       11.859499654632444
_cell_angle_alpha    56.10713322711195
_cell_angle_beta     90.0
_cell_angle_gamma    90.0

_space_group_name_H-M_alt    "P 1"
_space_group_IT_number       1

loop_
  _space_group_symop_operation_xyz
  'x, y, z'

loop_
  _atom_site_type_symbol
  _atom_site_label
  _atom_site_symmetry_multiplicity
  _atom_site_fract_x
  _atom_site_fract_y
  _atom_site_fract_z
  _atom_site_occupancy
  Sn  Sn1       1.0  0.07491888276227768  0.6579203501981369  0.5333030670583423  1.0000
  Sn  Sn2       1.0  0.7827466144372613  0.7831516048819205  0.01856245228630085  1.0000
  Sn  Sn3       1.0  0.33877092699120165  0.3882013305436506  0.8754364669009711  1.0000
  Sn  Sn4       1.0  0.5942297991400092  0.20725783974036582  0.4753189530420315  1.0000
  P   P1        1.0  0.567664682020549  0.0497736183502655  0.2861498009135496  1.0000
  P   P2        1.0  0.33288378480794223  0.8182769331579675  0.9302155962311791  1.0000
  P   P3        1.0  0.8212674935666088  0.8645269543963774  0.2797209816048213  1.0000
  P   P4        1.0  0.32173752335343314  0.18458373618497678  0.6896396239617951  1.0000
  S   S1        1.0  0.6923379798272282  0.9873458402715636  0.7454181485010869  1.0000
  S   S2        1.0  0.4181774793751027  0.7641579729144785  0.34808107489464524  1.0000
  S   S3        1.0  0.4787251961745621  0.4638846351504084  0.6077421322064097  1.0000
  S   S4        1.0  0.6470428671505662  0.2789139003080805  0.09857698055460522  1.0000
  S   S5        1.0  0.24930783840019158  0.07764452484316677  0.5630038176296182  1.0000
  S   S6        1.0  0.9908458180027268  0.08242975368239448  0.13047597040726133  1.0000
  S   S7        1.0  0.054030744388978695  0.14628752416603746  0.7812177316173308  1.0000
  S   S8        1.0  0.935086993794764  0.18639434474120364  0.27686848793736946  1.0000
  S   S9        1.0  0.17363674064786605  0.49879856948448753  0.04249358319232166  1.0000
  S   S10       1.0  0.965405288695632  0.5112652624430458  0.40014569012542084  1.0000
  S   S11       1.0  0.44086837335505896  0.8781285366661422  0.08545137377984645  1.0000
  S   S12       1.0  0.6908551046149664  0.68916562493729  0.7512440738490411  1.0000
data_image19
_chemical_formula_structural       Sn4P4S12
_chemical_formula_sum              "Sn4 P4 S12"
_cell_length_a       7.57141576
_cell_length_b       6.596566975487068
_cell_length_c       11.859499654632444
_cell_angle_alpha    56.10713322711195
_cell_angle_beta     90.0
_cell_angle_gamma    90.0

_space_group_name_H-M_alt    "P 1"
_space_group_IT_number       1

loop_
  _space_group_symop_operation_xyz
  'x, y, z'

loop_
  _atom_site_type_symbol
  _atom_site_label
  _atom_site_symmetry_multiplicity
  _atom_site_fract_x
  _atom_site_fract_y
  _atom_site_fract_z
  _atom_site_occupancy
  Sn  Sn1       1.0  0.08531253910228113  0.6917859364401309  0.5302616846508257  1.0000
  Sn  Sn2       1.0  0.7862394380395963  0.8240522904923462  0.0048526213226558375  1.0000
  Sn  Sn3       1.0  0.33410607046828533  0.4502699090817122  0.8690544782994183  1.0000
  Sn  Sn4       1.0  0.6036368287276979  0.1779737371645905  0.45688926163127597  1.0000
  P   P1        1.0  0.608684110636483  0.05955113555345659  0.23826366486035055  1.0000
  P   P2        1.0  0.36089836566150363  0.76208345713896  0.9799249139018268  1.0000
  P   P3        1.0  0.8286097121451634  0.6972703528207946  0.3462778143353887  1.0000
  P   P4        1.0  0.35624773308232716  0.08208798635722855  0.7620274263811571  1.0000
  S   S1        1.0  0.6417191032482789  0.9742259467444243  0.7489292630547528  1.0000
  S   S2        1.0  0.3242501647232102  0.7032328840874185  0.36600065845854624  1.0000
  S   S3        1.0  0.45875479309756056  0.7662039508891767  0.5063938624017009  1.0000
  S   S4        1.0  0.6328389403438907  0.37836885741167164  0.03819279106472337  1.0000
  S   S5        1.0  0.30665198970405044  0.9842832271062489  0.626268911093154  1.0000
  S   S6        1.0  0.93541678093063  0.9876013209933511  0.1500532650363784  1.0000
  S   S7        1.0  0.08374950085552982  0.1380986360022341  0.8041647996106814  1.0000
  S   S8        1.0  0.981563849487592  0.08653538671703821  0.30965004178668104  1.0000
  S   S9        1.0  0.13458844233234357  0.4885643945005264  0.05611014134770764  1.0000
  S   S10       1.0  0.9711978578800919  0.4103999994834076  0.3990021294937576  1.0000
  S   S11       1.0  0.38133585230538736  0.9101708576592394  0.07957192356499344  1.0000
  S   S12       1.0  0.7075726422782587  0.6412066368577823  0.7622931813970091  1.0000
data_image20
_chemical_formula_structural       Sn4P4S12
_chemical_formula_sum              "Sn4 P4 S12"
_cell_length_a       7.57141576
_cell_length_b       6.596566975487068
_cell_length_c       11.859499654632444
_cell_angle_alpha    56.10713322711195
_cell_angle_beta     90.0
_cell_angle_gamma    90.0

_space_group_name_H-M_alt    "P 1"
_space_group_IT_number       1

loop_
  _space_group_symop_operation_xyz
  'x, y, z'

loop_
  _atom_site_type_symbol
  _atom_site_label
  _atom_site_symmetry_multiplicity
  _atom_site_fract_x
  _atom_site_fract_y
  _atom_site_fract_z
  _atom_site_occupancy
  Sn  Sn1       1.0  0.028992530302023038  0.681484349451747  0.5462069679208403  1.0000
  Sn  Sn2       1.0  0.794380865478321  0.8420958287666525  0.9845835769172202  1.0000
  Sn  Sn3       1.0  0.33159335838252996  0.5098679318964875  0.8551092854762395  1.0000
  Sn  Sn4       1.0  0.5724637555424275  0.1473519187072032  0.4578545831802943  1.0000
  P   P1        1.0  0.6277598206929333  0.032144329469792066  0.2750933409262556  1.0000
  P   P2        1.0  0.3641310836268626  0.7415081504974566  0.005175937499335426  1.0000
  P   P3        1.0  0.8033269482016361  0.7518842141702189  0.2857639613212582  1.0000
  P   P4        1.0  0.37663808679616084  0.9969564486536919  0.7865716913695311  1.0000
  S   S1        1.0  0.6516384067372091  0.0056631091359946595  0.7163430686855607  1.0000
  S   S2        1.0  0.4041708824341686  0.7462708543497532  0.32669702101596  1.0000
  S   S3        1.0  0.4587813131555954  0.6134981532223511  0.5148793237942139  1.0000
  S   S4        1.0  0.6978971449367019  0.3588860876369237  0.09544074998138072  1.0000
  S   S5        1.0  0.18141409101765435  0.9076441978793929  0.6444332256896779  1.0000
  S   S6        1.0  0.9757904951360139  0.9161398370186062  0.15655535903529127  1.0000
  S   S7        1.0  0.16182085928595244  0.20627422582475222  0.8077923911999085  1.0000
  S   S8        1.0  0.973254441137627  0.2116955211843265  0.31353130351743147  1.0000
  S   S9        1.0  0.12673704725897084  0.4967294961691289  0.05288534600527739  1.0000
  S   S10       1.0  0.9982083503344075  0.30218080346433146  0.44642281337643236  1.0000
  S   S11       1.0  0.4951730716328732  0.9577139023669599  0.05017371146450109  1.0000
  S   S12       1.0  0.7225222712191055  0.6854244631223192  0.7618738426557491  1.0000
data_image21
_chemical_formula_structural       Sn4P4S12
_chemical_formula_sum              "Sn4 P4 S12"
_cell_length_a       7.57141576
_cell_length_b       6.596566975487068
_cell_length_c       11.859499654632444
_cell_angle_alpha    56.10713322711195
_cell_angle_beta     90.0
_cell_angle_gamma    90.0

_space_group_name_H-M_alt    "P 1"
_space_group_IT_number       1

loop_
  _space_group_symop_operation_xyz
  'x, y, z'

loop_
  _atom_site_type_symbol
  _atom_site_label
  _atom_site_symmetry_multiplicity
  _atom_site_fract_x
  _atom_site_fract_y
  _atom_site_fract_z
  _atom_site_occupancy
  Sn  Sn1       1.0  0.006431592650081338  0.6564223614563649  0.5536113863040194  1.0000
  Sn  Sn2       1.0  0.8111019735896531  0.7601526504237015  0.9960651936109534  1.0000
  Sn  Sn3       1.0  0.3421577091989232  0.5297257570970496  0.8319336673965914  1.0000
  Sn  Sn4       1.0  0.5575668429114335  0.17761286506146468  0.4664335586065259  1.0000
  P   P1        1.0  0.5487900266426914  0.03125220584881516  0.24023088844075133  1.0000
  P   P2        1.0  0.3612697034557421  0.7895816987534843  0.02277417003491755  1.0000
  P   P3        1.0  0.8099057387696623  0.89786581018059  0.3077117985358197  1.0000
  P   P4        1.0  0.4104410923060552  0.9800956387687916  0.8028152648149435  1.0000
  S   S1        1.0  0.6473074071858849  0.1815181282350966  0.6963105685157018  1.0000
  S   S2        1.0  0.31086113278627076  0.7319538444845878  0.3269666691949398  1.0000
  S   S3        1.0  0.4537307899308951  0.4929966408469758  0.5322328198374504  1.0000
  S   S4        1.0  0.783880773291508  0.269341161648696  0.1548393456547732  1.0000
  S   S5        1.0  0.03587522187694575  0.8694449520661398  0.6741514560470092  1.0000
  S   S6        1.0  0.015117693245773944  0.8489726207122164  0.18643827430592785  1.0000
  S   S7        1.0  0.18085813949942042  0.22547764016113295  0.7253833595741043  1.0000
  S   S8        1.0  0.021113220104846286  0.18243257203993843  0.2997268844493699  1.0000
  S   S9        1.0  0.17678275610184158  0.5981541688159822  0.006731502579981896  1.0000
  S   S10       1.0  0.9118057853843484  0.28075590067681105  0.43148669442987053  1.0000
  S   S11       1.0  0.5451250987832659  0.07474303152125827  0.030718272245493457  1.0000
  S   S12       1.0  0.841808374716931  0.6859252162542743  0.7909629470339447  1.0000
data_image22
_chemical_formula_structural       Sn4P4S12
_chemical_formula_sum              "Sn4 P4 S12"
_cell_length_a       7.57141576
_cell_length_b       6.596566975487068
_cell_length_c       11.859499654632444
_cell_angle_alpha    56.10713322711195
_cell_angle_beta     90.0
_cell_angle_gamma    90.0

_space_group_name_H-M_alt    "P 1"
_space_group_IT_number       1

loop_
  _space_group_symop_operation_xyz
  'x, y, z'

loop_
  _atom_site_type_symbol
  _atom_site_label
  _atom_site_symmetry_multiplicity
  _atom_site_fract_x
  _atom_site_fract_y
  _atom_site_fract_z
  _atom_site_occupancy
  Sn  Sn1       1.0  0.9445908875147729  0.7058195693592998  0.5513624925520235  1.0000
  Sn  Sn2       1.0  0.8262116192924011  0.7390138459420468  0.9835028439455594  1.0000
  Sn  Sn3       1.0  0.39923827083994123  0.5351014266949492  0.8186449362167176  1.0000
  Sn  Sn4       1.0  0.5147204628706985  0.1698694956736624  0.49445506046736926  1.0000
  P   P1        1.0  0.4667331178248831  0.05055505721869946  0.22394378866553785  1.0000
  P   P2        1.0  0.4606266502869023  0.8090750268165962  0.03926038757886352  1.0000
  P   P3        1.0  0.7167612751476997  0.8256970110616495  0.2875411422847675  1.0000
  P   P4        1.0  0.40277730544974044  0.981346078114621  0.7919996997473427  1.0000
  S   S1        1.0  0.6739910420241529  0.22323138170432877  0.6561342738584505  1.0000
  S   S2        1.0  0.25822253869369366  0.7162593619805743  0.28787479800479493  1.0000
  S   S3        1.0  0.5805769500529742  0.5591270023052576  0.5278685188806912  1.0000
  S   S4        1.0  0.7958507002595621  0.29439701526066153  0.14863417561508507  1.0000
  S   S5        1.0  0.0886002896854465  0.7276249592300167  0.7490360072844561  1.0000
  S   S6        1.0  0.033207653588584796  0.8659038332550004  0.19145525931259644  1.0000
  S   S7        1.0  0.20398216451928924  0.16805336994601514  0.8014618919222621  1.0000
  S   S8        1.0  0.9948381883206262  0.24182090419823452  0.26742120798197305  1.0000
  S   S9        1.0  0.22974711455960795  0.6194846771646834  0.9975014170619914  1.0000
  S   S10       1.0  0.8885286344270656  0.3004966297215709  0.4023120414712496  1.0000
  S   S11       1.0  0.5186821817735127  0.10338198140379973  0.036119307191583794  1.0000
  S   S12       1.0  0.8563759403001115  0.5527669669084009  0.8212451646997738  1.0000
data_image23
_chemical_formula_structural       Sn4P4S12
_chemical_formula_sum              "Sn4 P4 S12"
_cell_length_a       7.57141576
_cell_length_b       6.596566975487068
_cell_length_c       11.859499654632444
_cell_angle_alpha    56.10713322711195
_cell_angle_beta     90.0
_cell_angle_gamma    90.0

_space_group_name_H-M_alt    "P 1"
_space_group_IT_number       1

loop_
  _space_group_symop_operation_xyz
  'x, y, z'

loop_
  _atom_site_type_symbol
  _atom_site_label
  _atom_site_symmetry_multiplicity
  _atom_site_fract_x
  _atom_site_fract_y
  _atom_site_fract_z
  _atom_site_occupancy
  Sn  Sn1       1.0  0.9189986919008073  0.7307580705245059  0.5603175643980679  1.0000
  Sn  Sn2       1.0  0.898439953061967  0.7685300904008886  0.9878801317967284  1.0000
  Sn  Sn3       1.0  0.4310032690958465  0.5624626152462541  0.7883452437392622  1.0000
  Sn  Sn4       1.0  0.5319741406701788  0.13126725704338937  0.5069172614057101  1.0000
  P   P1        1.0  0.44881065299554207  0.9266753700421594  0.2534411523887415  1.0000
  P   P2        1.0  0.3857352190049085  0.6562243401407984  0.05443596690103214  1.0000
  P   P3        1.0  0.6022824702697466  0.6541922187628029  0.30769903499262896  1.0000
  P   P4        1.0  0.46131861585917394  0.054937716291902354  0.8811343182163227  1.0000
  S   S1        1.0  0.7098590350495414  0.3119905427231773  0.6543825830575009  1.0000
  S   S2        1.0  0.2540192174412038  0.6269698759970019  0.22980660451974608  1.0000
  S   S3        1.0  0.5838100951965901  0.6337815054276196  0.5070137329120429  1.0000
  S   S4        1.0  0.783982487915308  0.2608986133961906  0.12911216517993393  1.0000
  S   S5        1.0  0.9859644587399325  0.870730292387978  0.7393134941356533  1.0000
  S   S6        1.0  0.11493096141750403  0.9572776362714243  0.09213003282995058  1.0000
  S   S7        1.0  0.20053909674712872  0.26388099631255374  0.7850057784176673  1.0000
  S   S8        1.0  0.9267208969639493  0.2161886592699439  0.26695367636248285  1.0000
  S   S9        1.0  0.18686288959571318  0.485807482567866  0.0378137982165907  1.0000
  S   S10       1.0  0.8491547460130264  0.2682053106551505  0.4413741073098459  1.0000
  S   S11       1.0  0.47966491043140264  0.11920431114545993  0.052091098529216846  1.0000
  S   S12       1.0  0.8398255362653922  0.5633068393135584  0.8185328822539909  1.0000
data_image24
_chemical_formula_structural       Sn4P4S12
_chemical_formula_sum              "Sn4 P4 S12"
_cell_length_a       7.57141576
_cell_length_b       6.596566975487068
_cell_length_c       11.859499654632444
_cell_angle_alpha    56.10713322711195
_cell_angle_beta     90.0
_cell_angle_gamma    90.0

_space_group_name_H-M_alt    "P 1"
_space_group_IT_number       1

loop_
  _space_group_symop_operation_xyz
  'x, y, z'

loop_
  _atom_site_type_symbol
  _atom_site_label
  _atom_site_symmetry_multiplicity
  _atom_site_fract_x
  _atom_site_fract_y
  _atom_site_fract_z
  _atom_site_occupancy
  Sn  Sn1       1.0  0.9809846690856041  0.7377014253725412  0.5432983743129717  1.0000
  Sn  Sn2       1.0  0.956193884720939  0.751170347366957  0.03761578679277783  1.0000
  Sn  Sn3       1.0  0.421532831575277  0.6329850660606601  0.7384853571049337  1.0000
  Sn  Sn4       1.0  0.505569437717423  0.12931833734590167  0.48656824418478334  1.0000
  P   P1        1.0  0.29422935940669037  0.8006578758097288  0.33444725481478943  1.0000
  P   P2        1.0  0.37766641504422827  0.5517256988876689  0.016464950604729855  1.0000
  P   P3        1.0  0.7088065642288044  0.664759603625084  0.3191626885633118  1.0000
  P   P4        1.0  0.3540728663177279  0.010825103433377217  0.913021732641882  1.0000
  S   S1        1.0  0.5479164662366739  0.25585316266105473  0.7231801950794706  1.0000
  S   S2        1.0  0.2506124987954582  0.5157736343953886  0.2996084676739959  1.0000
  S   S3        1.0  0.6660721514812437  0.5996088710839648  0.5031616068530856  1.0000
  S   S4        1.0  0.7609064319891661  0.15917344381784657  0.19018800033442315  1.0000
  S   S5        1.0  0.8521834881768935  0.01020244001261357  0.7197417435185012  1.0000
  S   S6        1.0  0.19859309789073065  0.007164370882618476  0.10234504180377013  1.0000
  S   S7        1.0  0.20207623434070376  0.23444112360271707  0.758761609467966  1.0000
  S   S8        1.0  0.9347582207722912  0.19714659080686223  0.2987854656046281  1.0000
  S   S9        1.0  0.13740597794839204  0.4096753825042019  0.9864228562427296  1.0000
  S   S10       1.0  0.8418927947160615  0.3589012960486555  0.41629627837213523  1.0000
  S   S11       1.0  0.5289756521808876  0.2478113942343465  0.9659282688961205  1.0000
  S   S12       1.0  0.8385827995233109  0.6236742027002533  0.8432096322839358  1.0000
data_image25
_chemical_formula_structural       Sn4P4S12
_chemical_formula_sum              "Sn4 P4 S12"
_cell_length_a       7.57141576
_cell_length_b       6.596566975487068
_cell_length_c       11.859499654632444
_cell_angle_alpha    56.10713322711195
_cell_angle_beta     90.0
_cell_angle_gamma    90.0

_space_group_name_H-M_alt    "P 1"
_space_group_IT_number       1

loop_
  _space_group_symop_operation_xyz
  'x, y, z'

loop_
  _atom_site_type_symbol
  _atom_site_label
  _atom_site_symmetry_multiplicity
  _atom_site_fract_x
  _atom_site_fract_y
  _atom_site_fract_z
  _atom_site_occupancy
  Sn  Sn1       1.0  0.030485419574891835  0.6824545685492089  0.5597767906959662  1.0000
  Sn  Sn2       1.0  0.9688724509762012  0.7539425339448732  0.04062679734526255  1.0000
  Sn  Sn3       1.0  0.46488718027515236  0.6123966492613484  0.7646574163421015  1.0000
  Sn  Sn4       1.0  0.4675919352292267  0.19548293010721798  0.4648930621983791  1.0000
  P   P1        1.0  0.4142481659877925  0.7585380769486659  0.3020804108435327  1.0000
  P   P2        1.0  0.33491342009084896  0.563171284148222  0.01375584139740793  1.0000
  P   P3        1.0  0.8534591834930011  0.8875342717422737  0.30050275455322006  1.0000
  P   P4        1.0  0.26983868377225234  0.9580157826419204  0.9051902033715103  1.0000
  S   S1        1.0  0.48498669597807026  0.0651360575573583  0.7010816424389141  1.0000
  S   S2        1.0  0.1707653672772625  0.5401290111223447  0.3704332129154837  1.0000
  S   S3        1.0  0.6769936650636492  0.7389508355711206  0.48897667608963113  1.0000
  S   S4        1.0  0.7285325063843633  0.2308030216832132  0.19327024054075928  1.0000
  S   S5        1.0  0.758142526821223  0.01936620595138378  0.7062182406988516  1.0000
  S   S6        1.0  0.26689017523731207  0.9539216152732326  0.128141974928361  1.0000
  S   S7        1.0  0.1481804360606403  0.16171081673935261  0.7385522808747006  1.0000
  S   S8        1.0  0.9568894906940469  0.20222570138686066  0.30920288517474587  1.0000
  S   S9        1.0  0.1574702002812831  0.5722060568608495  0.890985809484385  1.0000
  S   S10       1.0  0.8080420551100541  0.22134480785419386  0.447145494672874  1.0000
  S   S11       1.0  0.46493227691117117  0.16098475083673192  0.9972934556914483  1.0000
  S   S12       1.0  0.7542533927618469  0.645952669808432  0.8057100788925011  1.0000
data_image26
_chemical_formula_structural       Sn4P4S12
_chemical_formula_sum              "Sn4 P4 S12"
_cell_length_a       7.57141576
_cell_length_b       6.596566975487068
_cell_length_c       11.859499654632444
_cell_angle_alpha    56.10713322711195
_cell_angle_beta     90.0
_cell_angle_gamma    90.0

_space_group_name_H-M_alt    "P 1"
_space_group_IT_number       1

loop_
  _space_group_symop_operation_xyz
  'x, y, z'

loop_
  _atom_site_type_symbol
  _atom_site_label
  _atom_site_symmetry_multiplicity
  _atom_site_fract_x
  _atom_site_fract_y
  _atom_site_fract_z
  _atom_site_occupancy
  Sn  Sn1       1.0  0.07047775026993813  0.7001175277870086  0.5696360099858789  1.0000
  Sn  Sn2       1.0  0.9502917364120895  0.8343806413307254  0.9900818565120266  1.0000
  Sn  Sn3       1.0  0.4328868095958718  0.5424418801248676  0.8030660053385991  1.0000
  Sn  Sn4       1.0  0.4581479451927179  0.1262906628191145  0.42505250186640453  1.0000
  P   P1        1.0  0.4204321395329648  0.6296161099390115  0.30224767664428753  1.0000
  P   P2        1.0  0.3758537624969998  0.6552100636620988  0.005462265788607645  1.0000
  P   P3        1.0  0.8365441721664777  0.0127898111801972  0.295254612599881  1.0000
  P   P4        1.0  0.36763431828691623  0.08487711943390071  0.8349796726559726  1.0000
  S   S1        1.0  0.4051003666261553  0.24125855330511947  0.6497643942345857  1.0000
  S   S2        1.0  0.10936271265919514  0.5638655441454647  0.3596416026625399  1.0000
  S   S3        1.0  0.7524702971730793  0.7038577095494402  0.47344721829064035  1.0000
  S   S4        1.0  0.6935454220934809  0.3297576169364762  0.16743002182910732  1.0000
  S   S5        1.0  0.7248737110150861  0.9342496719052482  0.7275802354815095  1.0000
  S   S6        1.0  0.21307680727130673  0.8760203957436363  0.1709655038238107  1.0000
  S   S7        1.0  0.10641906790151966  0.2103251358371749  0.8239338739395851  1.0000
  S   S8        1.0  0.0076397585881951  0.19953551874102549  0.31491357128544173  1.0000
  S   S9        1.0  0.1508016982094893  0.5351161077369687  0.9482293452794726  1.0000
  S   S10       1.0  0.8756600635911362  0.1449609195980582  0.5759175035554495  1.0000
  S   S11       1.0  0.5092808016824826  0.14575277589543778  0.012506933500708103  1.0000
  S   S12       1.0  0.7764278194836438  0.5798763261956876  0.786107165029215  1.0000
data_image27
_chemical_formula_structural       Sn4P4S12
_chemical_formula_sum              "Sn4 P4 S12"
_cell_length_a       7.57141576
_cell_length_b       6.596566975487068
_cell_length_c       11.859499654632444
_cell_angle_alpha    56.10713322711195
_cell_angle_beta     90.0
_cell_angle_gamma    90.0

_space_group_name_H-M_alt    "P 1"
_space_group_IT_number       1

loop_
  _space_group_symop_operation_xyz
  'x, y, z'

loop_
  _atom_site_type_symbol
  _atom_site_label
  _atom_site_symmetry_multiplicity
  _atom_site_fract_x
  _atom_site_fract_y
  _atom_site_fract_z
  _atom_site_occupancy
  Sn  Sn1       1.0  0.06595697934178328  0.7116800567276306  0.5879690507490157  1.0000
  Sn  Sn2       1.0  0.878910251339586  0.8438186366084318  0.02578263302694155  1.0000
  Sn  Sn3       1.0  0.38213281656635956  0.5775517655799377  0.7816335444014575  1.0000
  Sn  Sn4       1.0  0.44735886929801166  0.04191909387783558  0.38884705259383007  1.0000
  P   P1        1.0  0.38961570676096574  0.555141413757488  0.28465438602274457  1.0000
  P   P2        1.0  0.3733049423600144  0.7142252519082087  0.05977682710720056  1.0000
  P   P3        1.0  0.8608123754540167  0.058826685665655895  0.26761831795279867  1.0000
  P   P4        1.0  0.3770202827703483  0.13395174710793675  0.7498773535175058  1.0000
  S   S1        1.0  0.49138404610158765  0.3553387460672117  0.5861302913987588  1.0000
  S   S2        1.0  0.1399806814683428  0.5347071884853102  0.3692870341318018  1.0000
  S   S3        1.0  0.7290193041484807  0.8108938821646127  0.42705261530685407  1.0000
  S   S4        1.0  0.664246397962356  0.339243382530275  0.1825685991145935  1.0000
  S   S5        1.0  0.8082001204838656  0.8604042964901382  0.7990812017056934  1.0000
  S   S6        1.0  0.2568302931072184  0.8816214183544171  0.17784303275470492  1.0000
  S   S7        1.0  0.15502761480800234  0.21766410370872963  0.8618497127556514  1.0000
  S   S8        1.0  0.07797056093278742  0.20317902296225868  0.29978659058104984  1.0000
  S   S9        1.0  0.15979603945538456  0.5673503797242101  0.031129645223706426  1.0000
  S   S10       1.0  0.9383866921328319  0.0797789644634028  0.6498773720020875  1.0000
  S   S11       1.0  0.6134333472666172  0.15705423954033582  0.8845839555900241  1.0000
  S   S12       1.0  0.7987026697909028  0.48411531948306374  0.828566672004603  1.0000
data_image28
_chemical_formula_structural       Sn4P4S12
_chemical_formula_sum              "Sn4 P4 S12"
_cell_length_a       7.57141576
_cell_length_b       6.596566975487068
_cell_length_c       11.859499654632444
_cell_angle_alpha    56.10713322711195
_cell_angle_beta     90.0
_cell_angle_gamma    90.0

_space_group_name_H-M_alt    "P 1"
_space_group_IT_number       1

loop_
  _space_group_symop_operation_xyz
  'x, y, z'

loop_
  _atom_site_type_symbol
  _atom_site_label
  _atom_site_symmetry_multiplicity
  _atom_site_fract_x
  _atom_site_fract_y
  _atom_site_fract_z
  _atom_site_occupancy
  Sn  Sn1       1.0  0.011529094669156276  0.7596124368694734  0.5331772077077068  1.0000
  Sn  Sn2       1.0  0.9342648543899986  0.8030342479718946  0.0640256657112625  1.0000
  Sn  Sn3       1.0  0.3841770986745512  0.5404947412370406  0.799124334120918  1.0000
  Sn  Sn4       1.0  0.41773005897933685  0.9277590438174016  0.3931239457400147  1.0000
  P   P1        1.0  0.4125004266037604  0.48490204215819444  0.3410369563119711  1.0000
  P   P2        1.0  0.38917093610574993  0.797106239392919  0.13124560354466652  1.0000
  P   P3        1.0  0.8302985897900882  0.1747300395365828  0.21197989825595076  1.0000
  P   P4        1.0  0.3025963978178845  0.08618894460917824  0.7117472616196097  1.0000
  S   S1        1.0  0.4691993215240058  0.38951142310528897  0.5777834159199028  1.0000
  S   S2        1.0  0.1840748788317531  0.6368157856206572  0.3701743166496378  1.0000
  S   S3        1.0  0.7718784835274538  0.8065822063324117  0.3418018555919931  1.0000
  S   S4        1.0  0.6675704377090375  0.44290119030103914  0.18714231912193743  1.0000
  S   S5        1.0  0.8182450336318143  0.7764836267232039  0.8407432758071969  1.0000
  S   S6        1.0  0.20218727503617084  0.00537225235249934  0.17096460932507984  1.0000
  S   S7        1.0  0.1865184594669839  0.2525625624749696  0.8207261111643932  1.0000
  S   S8        1.0  0.007691668157850717  0.2891293202348289  0.30793244324180685  1.0000
  S   S9        1.0  0.20403465451134295  0.5243085647098924  0.13145022849078525  1.0000
  S   S10       1.0  0.996208169226573  0.024387810610775263  0.6491934158842586  1.0000
  S   S11       1.0  0.6588075791360004  0.3235256769602326  0.7886564283622742  1.0000
  S   S12       1.0  0.8287650950882995  0.4700985282499754  0.8626143816168984  1.0000
data_image29
_chemical_formula_structural       Sn4P4S12
_chemical_formula_sum              "Sn4 P4 S12"
_cell_length_a       7.57141576
_cell_length_b       6.596566975487068
_cell_length_c       11.859499654632444
_cell_angle_alpha    56.10713322711195
_cell_angle_beta     90.0
_cell_angle_gamma    90.0

_space_group_name_H-M_alt    "P 1"
_space_group_IT_number       1

loop_
  _space_group_symop_operation_xyz
  'x, y, z'

loop_
  _atom_site_type_symbol
  _atom_site_label
  _atom_site_symmetry_multiplicity
  _atom_site_fract_x
  _atom_site_fract_y
  _atom_site_fract_z
  _atom_site_occupancy
  Sn  Sn1       1.0  0.9322198091617565  0.7330635313540658  0.5034200053430871  1.0000
  Sn  Sn2       1.0  0.9806205933493877  0.8443695959363038  0.06846545931812471  1.0000
  Sn  Sn3       1.0  0.41101909414235593  0.5545816436018582  0.7793409732423053  1.0000
  Sn  Sn4       1.0  0.44805580372102055  0.8540504853155207  0.42923637221258326  1.0000
  P   P1        1.0  0.38940520909723253  0.5544838957079108  0.3400733933288992  1.0000
  P   P2        1.0  0.4475287420001932  0.8127120113926889  0.12306081777636502  1.0000
  P   P3        1.0  0.8401433812176906  0.2440494086165917  0.22374261463401665  1.0000
  P   P4        1.0  0.24036938649170664  0.014745273233613224  0.7544235402214288  1.0000
  S   S1        1.0  0.4423697098431037  0.428127406194986  0.619106871278369  1.0000
  S   S2        1.0  0.1758144417616246  0.7752933191186239  0.33708088403866265  1.0000
  S   S3        1.0  0.7122491876298676  0.9081851384830636  0.27894126186099716  1.0000
  S   S4        1.0  0.596278825403906  0.5091677598209686  0.1903141627481919  1.0000
  S   S5        1.0  0.8180760472856804  0.8617933700267417  0.8091780918042858  1.0000
  S   S6        1.0  0.2543100254990107  0.052346857847581675  0.10925110095412727  1.0000
  S   S7        1.0  0.1251111616140136  0.16483963099418053  0.8453583126461414  1.0000
  S   S8        1.0  0.013882912195904096  0.19397911173659144  0.3550785155502741  1.0000
  S   S9        1.0  0.24600132274835862  0.5066211744626907  0.173195393378474  1.0000
  S   S10       1.0  0.9828913598570858  0.004975069987035568  0.6518209476712014  1.0000
  S   S11       1.0  0.6570901045262689  0.24327753307650823  0.8177041777614291  1.0000
  S   S12       1.0  0.8997895642663798  0.38001499097087854  0.8508799486519656  1.0000
data_image30
_chemical_formula_structural       Sn4P4S12
_chemical_formula_sum              "Sn4 P4 S12"
_cell_length_a       7.57141576
_cell_length_b       6.596566975487068
_cell_length_c       11.859499654632444
_cell_angle_alpha    56.10713322711195
_cell_angle_beta     90.0
_cell_angle_gamma    90.0

_space_group_name_H-M_alt    "P 1"
_space_group_IT_number       1

loop_
  _space_group_symop_operation_xyz
  'x, y, z'

loop_
  _atom_site_type_symbol
  _atom_site_label
  _atom_site_symmetry_multiplicity
  _atom_site_fract_x
  _atom_site_fract_y
  _atom_site_fract_z
  _atom_site_occupancy
  Sn  Sn1       1.0  0.8741716043785294  0.7092886204822579  0.5132414661051944  1.0000
  Sn  Sn2       1.0  0.9892781070303086  0.9132650909312013  0.07200402560597373  1.0000
  Sn  Sn3       1.0  0.41085705241188725  0.5286583699047159  0.7901281608688824  1.0000
  Sn  Sn4       1.0  0.49621992421731187  0.899100970617129  0.45526378817104723  1.0000
  P   P1        1.0  0.30265036661175504  0.5167474201572991  0.3375272839651703  1.0000
  P   P2        1.0  0.4553617681451805  0.8549578573619389  0.06847286755523552  1.0000
  P   P3        1.0  0.8538945911489688  0.2630333875182073  0.17073927545064185  1.0000
  P   P4        1.0  0.2564326191972822  0.9672535136975889  0.7538164497012316  1.0000
  S   S1        1.0  0.5605007246577792  0.32996062110218793  0.6046274939327254  1.0000
  S   S2        1.0  0.17433248878066052  0.8036940412013134  0.35429514817553515  1.0000
  S   S3        1.0  0.6476389942904995  0.9886127943336969  0.22457240331786693  1.0000
  S   S4        1.0  0.6268717066239007  0.38390375152018147  0.22470167797379192  1.0000
  S   S5        1.0  0.8462915756325058  0.7769007162325172  0.8276723289180851  1.0000
  S   S6        1.0  0.31474439887083405  0.11989442883498515  0.05799089360569809  1.0000
  S   S7        1.0  0.1879070790118696  0.18592128884891207  0.8158089094974128  1.0000
  S   S8        1.0  0.9858550298695576  0.17712084492081528  0.35972843598597326  1.0000
  S   S9        1.0  0.24480797992515058  0.5407098902264904  0.14454883053246514  1.0000
  S   S10       1.0  0.9910701304120474  0.9761014720445735  0.6611847581494252  1.0000
  S   S11       1.0  0.6116399890791029  0.14122066322447546  0.8030440360301181  1.0000
  S   S12       1.0  0.7809295251507182  0.3975003065141134  0.8791274283392622  1.0000
data_image31
_chemical_formula_structural       Sn4P4S12
_chemical_formula_sum              "Sn4 P4 S12"
_cell_length_a       7.57141576
_cell_length_b       6.596566975487068
_cell_length_c       11.859499654632444
_cell_angle_alpha    56.10713322711195
_cell_angle_beta     90.0
_cell_angle_gamma    90.0

_space_group_name_H-M_alt    "P 1"
_space_group_IT_number       1

loop_
  _space_group_symop_operation_xyz
  'x, y, z'

loop_
  _atom_site_type_symbol
  _atom_site_label
  _atom_site_symmetry_multiplicity
  _atom_site_fract_x
  _atom_site_fract_y
  _atom_site_fract_z
  _atom_site_occupancy
  Sn  Sn1       1.0  0.9065763220022284  0.5672264575010326  0.5354869351984288  1.0000
  Sn  Sn2       1.0  0.9634341835813425  0.9432797378284159  0.07130766521799307  1.0000
  Sn  Sn3       1.0  0.4306573344191496  0.4899966010548769  0.7817534688420732  1.0000
  Sn  Sn4       1.0  0.48761823369504464  0.9795353770695289  0.44783493416324  1.0000
  P   P1        1.0  0.33262707761892896  0.46836468276431525  0.3043816815301873  1.0000
  P   P2        1.0  0.4289683071120992  0.7989668276509456  0.1066009291848129  1.0000
  P   P3        1.0  0.7660421866417836  0.2353838028359146  0.24108851886058547  1.0000
  P   P4        1.0  0.24691564538803765  0.04013072128001101  0.6694797046238665  1.0000
  S   S1        1.0  0.6565566512839158  0.33419958234495883  0.5139603966192035  1.0000
  S   S2        1.0  0.2637128145933521  0.7030826013817171  0.3682720424486378  1.0000
  S   S3        1.0  0.6799861310995173  0.8994072200464719  0.2920723828025901  1.0000
  S   S4        1.0  0.6207139397845395  0.5187257140547733  0.2771086281193974  1.0000
  S   S5        1.0  0.8432945399785032  0.8217551449874465  0.8855886974997892  1.0000
  S   S6        1.0  0.3144354657997077  0.11468731457874932  0.06688614196318365  1.0000
  S   S7        1.0  0.19365788667544104  0.1523294966755804  0.8075766661611015  1.0000
  S   S8        1.0  0.96873144452183  0.16856882255274896  0.40189372141927127  1.0000
  S   S9        1.0  0.12744881952193765  0.6501770202462424  0.07530261005825589  1.0000
  S   S10       1.0  0.9632235551468358  0.019552886302049852  0.6626619235984464  1.0000
  S   S11       1.0  0.6313420263674279  0.19897906862948256  0.7177903949648714  1.0000
  S   S12       1.0  0.7309686001298811  0.5644248224681756  0.8726130657233065  1.0000
data_image32
_chemical_formula_structural       Sn4P4S12
_chemical_formula_sum              "Sn4 P4 S12"
_cell_length_a       7.57141576
_cell_length_b       6.596566975487068
_cell_length_c       11.859499654632444
_cell_angle_alpha    56.10713322711195
_cell_angle_beta     90.0
_cell_angle_gamma    90.0

_space_group_name_H-M_alt    "P 1"
_space_group_IT_number       1

loop_
  _space_group_symop_operation_xyz
  'x, y, z'

loop_
  _atom_site_type_symbol
  _atom_site_label
  _atom_site_symmetry_multiplicity
  _atom_site_fract_x
  _atom_site_fract_y
  _atom_site_fract_z
  _atom_site_occupancy
  Sn  Sn1       1.0  0.9808926966740791  0.5904874918480644  0.5511472783154499  1.0000
  Sn  Sn2       1.0  0.9355637782552542  0.9830738259772549  0.06892104783009056  1.0000
  Sn  Sn3       1.0  0.42144813476205795  0.4521675994430103  0.8192875994904024  1.0000
  Sn  Sn4       1.0  0.49901084250626787  0.046907106787687905  0.4461975160214691  1.0000
  P   P1        1.0  0.29140690359650406  0.4771036104216505  0.2615192896206874  1.0000
  P   P2        1.0  0.3006106156656196  0.7708141877638123  0.04690661823475151  1.0000
  P   P3        1.0  0.7832549450575982  0.26076454562683865  0.2642154984233134  1.0000
  P   P4        1.0  0.27889600064938297  0.9660763570059298  0.7133529816279996  1.0000
  S   S1        1.0  0.6983300397617856  0.3826483909570122  0.4641566940734393  1.0000
  S   S2        1.0  0.16356113312231055  0.6539252680684747  0.35719400208792274  1.0000
  S   S3        1.0  0.7510469729121523  0.8565568640150679  0.3738145887182098  1.0000
  S   S4        1.0  0.6109056378444735  0.5495849371474459  0.17872902253505657  1.0000
  S   S5        1.0  0.669926898894921  0.8023148127245798  0.890451064230697  1.0000
  S   S6        1.0  0.25046190493096865  0.08009467500906259  0.07982150854241299  1.0000
  S   S7        1.0  0.19639131706523832  0.186612976372094  0.7636349405656175  1.0000
  S   S8        1.0  0.04052736955499925  0.16281544721617272  0.41155525689386474  1.0000
  S   S9        1.0  0.06019769323997948  0.5320193034267569  0.0838751792998993  1.0000
  S   S10       1.0  0.023956321718442163  0.052167314176960716  0.6045887291899771  1.0000
  S   S11       1.0  0.6706096045841243  0.08003488190050456  0.6796663287594364  1.0000
  S   S12       1.0  0.795558359542881  0.5311837674648316  0.9056083185265191  1.0000
data_image33
_chemical_formula_structural       Sn4P4S12
_chemical_formula_sum              "Sn4 P4 S12"
_cell_length_a       7.57141576
_cell_length_b       6.596566975487068
_cell_length_c       11.859499654632444
_cell_angle_alpha    56.10713322711195
_cell_angle_beta     90.0
_cell_angle_gamma    90.0

_space_group_name_H-M_alt    "P 1"
_space_group_IT_number       1

loop_
  _space_group_symop_operation_xyz
  'x, y, z'

loop_
  _atom_site_type_symbol
  _atom_site_label
  _atom_site_symmetry_multiplicity
  _atom_site_fract_x
  _atom_site_fract_y
  _atom_site_fract_z
  _atom_site_occupancy
  Sn  Sn1       1.0  0.9989073107431001  0.6644426059284684  0.542902008409173  1.0000
  Sn  Sn2       1.0  0.9408612797835463  0.01310111672052261  0.11848073768503539  1.0000
  Sn  Sn3       1.0  0.4431974991992755  0.4203746067164252  0.8327589022196128  1.0000
  Sn  Sn4       1.0  0.4935404498801884  0.066964446593468  0.44444614148414946  1.0000
  P   P1        1.0  0.2474970100303035  0.46072323132723786  0.28663218897604964  1.0000
  P   P2        1.0  0.24741732928411495  0.764385499856345  0.06787465925640124  1.0000
  P   P3        1.0  0.7923673629228564  0.19230050733584894  0.24348799501616164  1.0000
  P   P4        1.0  0.3661760301698157  0.9731774209433927  0.7255023801859399  1.0000
  S   S1        1.0  0.6801646968194252  0.3554843071144351  0.4568307740111014  1.0000
  S   S2        1.0  0.20103986385814845  0.748022968019867  0.32454383862800046  1.0000
  S   S3        1.0  0.702841724348065  0.8317283310058906  0.3250127473860994  1.0000
  S   S4        1.0  0.44256979457015777  0.4613353835604553  0.12755274240914977  1.0000
  S   S5        1.0  0.6214836551872844  0.6971680365612294  0.898211424968211  1.0000
  S   S6        1.0  0.3039781006021638  0.06311298872598298  0.04677517144899723  1.0000
  S   S7        1.0  0.19718770355232734  0.1643696313346988  0.7843588016705949  1.0000
  S   S8        1.0  0.024136174672583888  0.1380222376598943  0.35635390826074265  1.0000
  S   S9        1.0  0.010129772329019238  0.6299540032016511  0.06290891511814634  1.0000
  S   S10       1.0  0.10236289983516025  0.8620456532373983  0.6805820130022038  1.0000
  S   S11       1.0  0.6331874184517602  0.06562592499641862  0.6539843331783457  1.0000
  S   S12       1.0  0.8665415312234294  0.593371168519446  0.8430369273587831  1.0000
data_image34
_chemical_formula_structural       Sn4P4S12
_chemical_formula_sum              "Sn4 P4 S12"
_cell_length_a       7.57141576
_cell_length_b       6.596566975487068
_cell_length_c       11.859499654632444
_cell_angle_alpha    56.10713322711195
_cell_angle_beta     90.0
_cell_angle_gamma    90.0

_space_group_name_H-M_alt    "P 1"
_space_group_IT_number       1

loop_
  _space_group_symop_operation_xyz
  'x, y, z'

loop_
  _atom_site_type_symbol
  _atom_site_label
  _atom_site_symmetry_multiplicity
  _atom_site_fract_x
  _atom_site_fract_y
  _atom_site_fract_z
  _atom_site_occupancy
  Sn  Sn1       1.0  0.9734340182182003  0.6528174717262399  0.5407062396795748  1.0000
  Sn  Sn2       1.0  0.965624080118558  0.038661035967781476  0.11266664433268035  1.0000
  Sn  Sn3       1.0  0.46373299193799106  0.392672596598155  0.8100385978628778  1.0000
  Sn  Sn4       1.0  0.48342349537849133  0.9961059369250008  0.47202739417953876  1.0000
  P   P1        1.0  0.22011473173495869  0.588199329546733  0.205676986643378  1.0000
  P   P2        1.0  0.30380708155255187  0.9288450801222369  0.04173340631523037  1.0000
  P   P3        1.0  0.7414495543986294  0.2281961757637509  0.3070736622128237  1.0000
  P   P4        1.0  0.4493892425257193  0.06048687726642395  0.7139371155362232  1.0000
  S   S1        1.0  0.6894649215787912  0.3348997234528288  0.4288308085824909  1.0000
  S   S2        1.0  0.2104114394591463  0.6221528587239289  0.37595500386223657  1.0000
  S   S3        1.0  0.7010075608839066  0.9074386768335255  0.31524224392490846  1.0000
  S   S4        1.0  0.36899810554925205  0.5041323141948925  0.09475941881352248  1.0000
  S   S5        1.0  0.6342938093774877  0.6478129543095295  0.8989200524225487  1.0000
  S   S6        1.0  0.44372313275801933  0.1465092842207151  0.06044218314688932  1.0000
  S   S7        1.0  0.23246353406262282  0.20979423053486926  0.6742856267070635  1.0000
  S   S8        1.0  0.0015923649397151518  0.1527897883035617  0.3400559728657469  1.0000
  S   S9        1.0  0.9469619873288287  0.7467477406423657  0.0581594026797152  1.0000
  S   S10       1.0  0.9794049957584258  0.6789211704868077  0.7419422037933467  1.0000
  S   S11       1.0  0.689616198014425  0.20259835703331008  0.7242707509975553  1.0000
  S   S12       1.0  0.7901669834448775  0.37163840360884953  0.9101251930302707  1.0000
data_image35
_chemical_formula_structural       Sn4P4S12
_chemical_formula_sum              "Sn4 P4 S12"
_cell_length_a       7.57141576
_cell_length_b       6.596566975487068
_cell_length_c       11.859499654632444
_cell_angle_alpha    56.10713322711195
_cell_angle_beta     90.0
_cell_angle_gamma    90.0

_space_group_name_H-M_alt    "P 1"
_space_group_IT_number       1

loop_
  _space_group_symop_operation_xyz
  'x, y, z'

loop_
  _atom_site_type_symbol
  _atom_site_label
  _atom_site_symmetry_multiplicity
  _atom_site_fract_x
  _atom_site_fract_y
  _atom_site_fract_z
  _atom_site_occupancy
  Sn  Sn1       1.0  0.9738951981773183  0.554767337975788  0.5972318422238923  1.0000
  Sn  Sn2       1.0  0.09225560642940445  0.10497381341943712  0.1118690977659434  1.0000
  Sn  Sn3       1.0  0.36949104278147865  0.47280142997052443  0.7730243035759783  1.0000
  Sn  Sn4       1.0  0.40175384475242115  0.9509127642296312  0.48230331116961855  1.0000
  P   P1        1.0  0.11569002377198853  0.5193989063265707  0.19219399311388774  1.0000
  P   P2        1.0  0.31776791535958115  0.05655367467577799  0.9763856952140489  1.0000
  P   P3        1.0  0.8328245331770955  0.2913469653810565  0.28235070645530524  1.0000
  P   P4        1.0  0.5262185950180148  0.08354951629883374  0.6556952967911387  1.0000
  S   S1        1.0  0.683477746258345  0.2703606391647615  0.44952361245281314  1.0000
  S   S2        1.0  0.22256871310518797  0.6291025960814266  0.3130387599132421  1.0000
  S   S3        1.0  0.7048084911366594  0.9844044805932173  0.33599703808829084  1.0000
  S   S4        1.0  0.2448522168157544  0.5195607758370782  0.05953401979422438  1.0000
  S   S5        1.0  0.5597558376017848  0.7492221065861007  0.8557655623338832  1.0000
  S   S6        1.0  0.6061838672350919  0.01878709945094192  0.034394513728198906  1.0000
  S   S7        1.0  0.24457235464194135  0.06695576741254927  0.6849705542493858  1.0000
  S   S8        1.0  0.11201377625837927  0.17457055760343873  0.40573794971316696  1.0000
  S   S9        1.0  0.886886525102652  0.710387297943521  0.08965419835547594  1.0000
  S   S10       1.0  0.10226054720810956  0.6011425741100598  0.8194038735977468  1.0000
  S   S11       1.0  0.6595272226623929  0.2811139704746213  0.6978994989568968  1.0000
  S   S12       1.0  0.7708206017242047  0.37284942186014697  0.9218706472969613  1.0000
data_image36
_chemical_formula_structural       Sn4P4S12
_chemical_formula_sum              "Sn4 P4 S12"
_cell_length_a       7.57141576
_cell_length_b       6.596566975487068
_cell_length_c       11.859499654632444
_cell_angle_alpha    56.10713322711195
_cell_angle_beta     90.0
_cell_angle_gamma    90.0

_space_group_name_H-M_alt    "P 1"
_space_group_IT_number       1

loop_
  _space_group_symop_operation_xyz
  'x, y, z'

loop_
  _atom_site_type_symbol
  _atom_site_label
  _atom_site_symmetry_multiplicity
  _atom_site_fract_x
  _atom_site_fract_y
  _atom_site_fract_z
  _atom_site_occupancy
  Sn  Sn1       1.0  0.9804622101573058  0.5222961715770953  0.6264955653223206  1.0000
  Sn  Sn2       1.0  0.13239885931396733  0.12184946940606678  0.09993996492487711  1.0000
  Sn  Sn3       1.0  0.3580808871581411  0.5889888260589956  0.741943653899462  1.0000
  Sn  Sn4       1.0  0.3956501512732683  0.8500351697332351  0.45387605757312166  1.0000
  P   P1        1.0  0.17766452858724155  0.40200556503947615  0.27658775254576584  1.0000
  P   P2        1.0  0.37279007873091285  0.05583477247465707  0.9263355517242697  1.0000
  P   P3        1.0  0.7278729694968418  0.2870974666490492  0.20454745927318232  1.0000
  P   P4        1.0  0.4705473994862551  0.15214107632369658  0.6877032854425129  1.0000
  S   S1        1.0  0.5789750451550327  0.11664423113574895  0.5129940081785445  1.0000
  S   S2        1.0  0.35189182173187067  0.7110035400363961  0.29395499413982706  1.0000
  S   S3        1.0  0.83603109114505  0.9197742178828273  0.29877457338707597  1.0000
  S   S4        1.0  0.28453845411897666  0.5044541150470423  0.09185533698513779  1.0000
  S   S5        1.0  0.6172505725886196  0.7962957004375592  0.8352908738002963  1.0000
  S   S6        1.0  0.6025603700323388  0.9933222120337497  0.017545152727671764  1.0000
  S   S7        1.0  0.21736153043263598  0.143739250297594  0.6707543808840482  1.0000
  S   S8        1.0  0.01625773558409116  0.07645281226057979  0.4409953508831662  1.0000
  S   S9        1.0  0.929850612938718  0.5481114868948175  0.2350037779757419  1.0000
  S   S10       1.0  0.8730893058842676  0.7474361768285761  0.7426854852864063  1.0000
  S   S11       1.0  0.6194388885800237  0.48786411542439523  0.6524329085879028  1.0000
  S   S12       1.0  0.801981945570966  0.3846592718307989  0.04196202725953113  1.0000
data_image37
_chemical_formula_structural       Sn4P4S12
_chemical_formula_sum              "Sn4 P4 S12"
_cell_length_a       7.57141576
_cell_length_b       6.596566975487068
_cell_length_c       11.859499654632444
_cell_angle_alpha    56.10713322711195
_cell_angle_beta     90.0
_cell_angle_gamma    90.0

_space_group_name_H-M_alt    "P 1"
_space_group_IT_number       1

loop_
  _space_group_symop_operation_xyz
  'x, y, z'

loop_
  _atom_site_type_symbol
  _atom_site_label
  _atom_site_symmetry_multiplicity
  _atom_site_fract_x
  _atom_site_fract_y
  _atom_site_fract_z
  _atom_site_occupancy
  Sn  Sn1       1.0  0.9784215100516268  0.5010472598009141  0.6395301638581794  1.0000
  Sn  Sn2       1.0  0.13741060374406433  0.19510248842098643  0.07560360648014047  1.0000
  Sn  Sn3       1.0  0.34510088106127346  0.6654637086305242  0.7538026893144733  1.0000
  Sn  Sn4       1.0  0.3708096827442689  0.8180943674179331  0.4165414331015709  1.0000
  P   P1        1.0  0.14218141269742748  0.40217671624261997  0.31264003261292056  1.0000
  P   P2        1.0  0.3787319935507558  0.17160177204493832  0.8464130933344227  1.0000
  P   P3        1.0  0.779378752909002  0.27450936926928143  0.17358196081118732  1.0000
  P   P4        1.0  0.47701244486124184  0.14905533546413985  0.656935876365935  1.0000
  S   S1        1.0  0.604026885195137  0.9898894036382034  0.5813525849480158  1.0000
  S   S2        1.0  0.34877500356367275  0.5747225234464072  0.31469335992013714  1.0000
  S   S3        1.0  0.9339250570357909  0.9326339747484413  0.2767643318266451  1.0000
  S   S4        1.0  0.3543006980923126  0.3541863034081392  0.16638289263384015  1.0000
  S   S5        1.0  0.5371412047856075  0.8774527961293493  0.8715048765515864  1.0000
  S   S6        1.0  0.5662613095359561  0.9541712126626714  0.032465263273363965  1.0000
  S   S7        1.0  0.17322356285157356  0.07513235288752423  0.6890823194696962  1.0000
  S   S8        1.0  0.12263515410508297  0.0014575006705482814  0.4842097309170015  1.0000
  S   S9        1.0  0.9058416017803835  0.5271084610470219  0.2631453365199119  1.0000
  S   S10       1.0  0.8521170217552614  0.7693381459299301  0.798302292308821  1.0000
  S   S11       1.0  0.5681046098681279  0.48893566282381107  0.6177234198573822  1.0000
  S   S12       1.0  0.8663082027278504  0.4274369056540836  0.9767168056145112  1.0000
data_image38
_chemical_formula_structural       Sn4P4S12
_chemical_formula_sum              "Sn4 P4 S12"
_cell_length_a       7.57141576
_cell_length_b       6.596566975487068
_cell_length_c       11.859499654632444
_cell_angle_alpha    56.10713322711195
_cell_angle_beta     90.0
_cell_angle_gamma    90.0

_space_group_name_H-M_alt    "P 1"
_space_group_IT_number       1

loop_
  _space_group_symop_operation_xyz
  'x, y, z'

loop_
  _atom_site_type_symbol
  _atom_site_label
  _atom_site_symmetry_multiplicity
  _atom_site_fract_x
  _atom_site_fract_y
  _atom_site_fract_z
  _atom_site_occupancy
  Sn  Sn1       1.0  0.9210957468920463  0.4216732062786345  0.6869771832429583  1.0000
  Sn  Sn2       1.0  0.2024237968827236  0.13523566971038736  0.05099244913996988  1.0000
  Sn  Sn3       1.0  0.28279771397953146  0.6698015804743636  0.7582539532581698  1.0000
  Sn  Sn4       1.0  0.39954964250601877  0.892883774405088  0.35418288325833025  1.0000
  P   P1        1.0  0.1963423874749819  0.28488805035951387  0.39315467897156603  1.0000
  P   P2        1.0  0.38827720251461767  0.163984296405566  0.8029927291649364  1.0000
  P   P3        1.0  0.8455363183893654  0.42007197139794117  0.16501991030951588  1.0000
  P   P4        1.0  0.5138662849195257  0.18252791363880538  0.6262449531737  1.0000
  S   S1        1.0  0.6070659590282249  0.8824803674437556  0.6497549863855147  1.0000
  S   S2        1.0  0.47777709457666  0.5538390816446206  0.34894684898436995  1.0000
  S   S3        1.0  0.8045273074550374  0.07377257818557115  0.2925143024942287  1.0000
  S   S4        1.0  0.28335514404298945  0.3827911318405463  0.17345045870829884  1.0000
  S   S5        1.0  0.5382548052727247  0.8713506059526452  0.89648152886229  1.0000
  S   S6        1.0  0.4892629957979342  0.10413072941937186  0.0067776427721863985  1.0000
  S   S7        1.0  0.1872962083257016  0.08764624067669141  0.6950167921356257  1.0000
  S   S8        1.0  0.07591947138045274  0.0048425933330325304  0.533805743533613  1.0000
  S   S9        1.0  0.9530344030991256  0.5301718409895707  0.29088309343409935  1.0000
  S   S10       1.0  0.9258313283132069  0.701239635846763  0.9024994291172309  1.0000
  S   S11       1.0  0.5813274830322349  0.5217651542304997  0.5386977613730479  1.0000
  S   S12       1.0  0.8459081317870993  0.4322036268050754  0.8729335519393617  1.0000
data_image39
_chemical_formula_structural       Sn4P4S12
_chemical_formula_sum              "Sn4 P4 S12"
_cell_length_a       7.57141576
_cell_length_b       6.596566975487068
_cell_length_c       11.859499654632444
_cell_angle_alpha    56.10713322711195
_cell_angle_beta     90.0
_cell_angle_gamma    90.0

_space_group_name_H-M_alt    "P 1"
_space_group_IT_number       1

loop_
  _space_group_symop_operation_xyz
  'x, y, z'

loop_
  _atom_site_type_symbol
  _atom_site_label
  _atom_site_symmetry_multiplicity
  _atom_site_fract_x
  _atom_site_fract_y
  _atom_site_fract_z
  _atom_site_occupancy
  Sn  Sn1       1.0  0.8893535711046096  0.4180157788930284  0.6656293407179958  1.0000
  Sn  Sn2       1.0  0.16959167645866557  0.040899645312241883  0.05453319035484712  1.0000
  Sn  Sn3       1.0  0.3038355404116923  0.6493131293708307  0.7514533765180769  1.0000
  Sn  Sn4       1.0  0.36608850975474816  0.9506666119780793  0.33104131080995464  1.0000
  P   P1        1.0  0.23959249503155278  0.28166918490954046  0.38267578053664375  1.0000
  P   P2        1.0  0.4770317723385674  0.17832319863094237  0.8414165445847854  1.0000
  P   P3        1.0  0.8587799131869596  0.4619784641995759  0.24874527079393222  1.0000
  P   P4        1.0  0.37262647526118065  0.15115670259630765  0.564956158970221  1.0000
  S   S1        1.0  0.5909368702154605  0.9124790259848239  0.6342494974729899  1.0000
  S   S2        1.0  0.5269352761014536  0.4800276325551737  0.3385067558946742  1.0000
  S   S3        1.0  0.797710067416493  0.14083973395921912  0.2108499648072814  1.0000
  S   S4        1.0  0.2187799830087572  0.34097160433917073  0.16190866381778163  1.0000
  S   S5        1.0  0.6093790939729966  0.86658106915737  0.8877837749453349  1.0000
  S   S6        1.0  0.5147921136886275  0.21655293170884896  0.9971734601522686  1.0000
  S   S7        1.0  0.1485422049161656  0.07790675034059444  0.7785199224160425  1.0000
  S   S8        1.0  0.12579323174150736  0.9477631035838164  0.4540862843732463  1.0000
  S   S9        1.0  0.06159301395768235  0.5976626377481659  0.32957353711904225  1.0000
  S   S10       1.0  0.013337566814928682  0.655155364245969  0.030312146689674746  1.0000
  S   S11       1.0  0.6022670783303968  0.5907050799882314  0.5323818254740842  1.0000
  S   S12       1.0  0.8428549333310019  0.5190501667926096  0.9727357925021434  1.0000
data_image40
_chemical_formula_structural       Sn4P4S12
_chemical_formula_sum              "Sn4 P4 S12"
_cell_length_a       7.57141576
_cell_length_b       6.596566975487068
_cell_length_c       11.859499654632444
_cell_angle_alpha    56.10713322711195
_cell_angle_beta     90.0
_cell_angle_gamma    90.0

_space_group_name_H-M_alt    "P 1"
_space_group_IT_number       1

loop_
  _space_group_symop_operation_xyz
  'x, y, z'

loop_
  _atom_site_type_symbol
  _atom_site_label
  _atom_site_symmetry_multiplicity
  _atom_site_fract_x
  _atom_site_fract_y
  _atom_site_fract_z
  _atom_site_occupancy
  Sn  Sn1       1.0  0.8991436887974728  0.49222799156506314  0.6715208469768306  1.0000
  Sn  Sn2       1.0  0.16692951416008062  0.045016927480191704  0.07311298784521662  1.0000
  Sn  Sn3       1.0  0.36718831672218366  0.6651940978509033  0.742206178789975  1.0000
  Sn  Sn4       1.0  0.4287872848393973  0.8570289248780983  0.3560993858089378  1.0000
  P   P1        1.0  0.11718261083674686  0.29629674558835883  0.3125302430936751  1.0000
  P   P2        1.0  0.43455157263534444  0.07532499363191003  0.8242986978092383  1.0000
  P   P3        1.0  0.8626281564099976  0.45300952543781753  0.2882341337880202  1.0000
  P   P4        1.0  0.3404578212059648  0.21746583146422008  0.5142197271222912  1.0000
  S   S1        1.0  0.6020088178457481  0.9963163143566718  0.5542323725503339  1.0000
  S   S2        1.0  0.4097471810531081  0.4639622677405117  0.31397861610099215  1.0000
  S   S3        1.0  0.7794218472996672  0.3297639681242701  0.14774402594773073  1.0000
  S   S4        1.0  0.20979737821641462  0.3926874097549798  0.11804345690282157  1.0000
  S   S5        1.0  0.553109777942776  0.7458124916476987  0.9211063271395075  1.0000
  S   S6        1.0  0.44865659050110507  0.19392288299920502  0.9526964435006272  1.0000
  S   S7        1.0  0.17444860488683656  0.9201134388577785  0.8320837076066023  1.0000
  S   S8        1.0  0.060284261392634875  0.7901401147117995  0.48951587529999907  1.0000
  S   S9        1.0  0.07969952083758747  0.7166201053684084  0.3293008493245422  1.0000
  S   S10       1.0  0.9706840040116224  0.7755141309203248  0.05119015718566122  1.0000
  S   S11       1.0  0.5488015134130881  0.5332695145681507  0.6050783214337007  1.0000
  S   S12       1.0  0.9096044192208207  0.518285039321378  0.9609267805600178  1.0000
data_image41
_chemical_formula_structural       Sn4P4S12
_chemical_formula_sum              "Sn4 P4 S12"
_cell_length_a       7.57141576
_cell_length_b       6.596566975487068
_cell_length_c       11.859499654632444
_cell_angle_alpha    56.10713322711195
_cell_angle_beta     90.0
_cell_angle_gamma    90.0

_space_group_name_H-M_alt    "P 1"
_space_group_IT_number       1

loop_
  _space_group_symop_operation_xyz
  'x, y, z'

loop_
  _atom_site_type_symbol
  _atom_site_label
  _atom_site_symmetry_multiplicity
  _atom_site_fract_x
  _atom_site_fract_y
  _atom_site_fract_z
  _atom_site_occupancy
  Sn  Sn1       1.0  0.864798675245551  0.4336696293406726  0.7296359127306689  1.0000
  Sn  Sn2       1.0  0.17347514163089994  0.07757894966572376  0.07598607816030317  1.0000
  Sn  Sn3       1.0  0.3648255516520777  0.676493990648082  0.7119891121792755  1.0000
  Sn  Sn4       1.0  0.5129807099216107  0.9238425912033537  0.36106675984097714  1.0000
  P   P1        1.0  0.09338556801429945  0.2993693758338419  0.302728754102543  1.0000
  P   P2        1.0  0.3822245764928229  0.9047276119580976  0.8188022707701939  1.0000
  P   P3        1.0  0.839797288474946  0.47402220465820843  0.24418546815303221  1.0000
  P   P4        1.0  0.40700390773157924  0.21604966858364236  0.508533520072989  1.0000
  S   S1        1.0  0.6399753428712648  0.05565953407033675  0.5458346491905773  1.0000
  S   S2        1.0  0.33806243389318325  0.45215735535476687  0.32327317736813554  1.0000
  S   S3        1.0  0.753362704441709  0.2733839662365911  0.1825107552120563  1.0000
  S   S4        1.0  0.1913128272122812  0.4526639146425147  0.0948469466189509  1.0000
  S   S5        1.0  0.5813084715430579  0.6481858510554057  0.9052389817049143  1.0000
  S   S6        1.0  0.4519281847815755  0.055911781876217474  0.9330226811612775  1.0000
  S   S7        1.0  0.12035829752824001  0.8194663419223666  0.8134444234851479  1.0000
  S   S8        1.0  0.10054999672329701  0.7705505092621937  0.5223019656038026  1.0000
  S   S9        1.0  0.999229131372962  0.7690437148618974  0.34272851818546335  1.0000
  S   S10       1.0  0.8997312914484086  0.0832119330200876  0.9642658192038054  1.0000
  S   S11       1.0  0.5109381404060717  0.43865024804242836  0.6076027672692754  1.0000
  S   S12       1.0  0.9925468176364559  0.5055482688979944  0.9720403090842814  1.0000
data_image42
_chemical_formula_structural       Sn4P4S12
_chemical_formula_sum              "Sn4 P4 S12"
_cell_length_a       7.57141576
_cell_length_b       6.596566975487068
_cell_length_c       11.859499654632444
_cell_angle_alpha    56.10713322711195
_cell_angle_beta     90.0
_cell_angle_gamma    90.0

_space_group_name_H-M_alt    "P 1"
_space_group_IT_number       1

loop_
  _space_group_symop_operation_xyz
  'x, y, z'

loop_
  _atom_site_type_symbol
  _atom_site_label
  _atom_site_symmetry_multiplicity
  _atom_site_fract_x
  _atom_site_fract_y
  _atom_site_fract_z
  _atom_site_occupancy
  Sn  Sn1       1.0  0.806491291792791  0.4354213932031758  0.736546438696373  1.0000
  Sn  Sn2       1.0  0.11075275927897965  0.09264412348065232  0.07174578244970009  1.0000
  Sn  Sn3       1.0  0.3094984994377408  0.6254842111919318  0.6587356191658482  1.0000
  Sn  Sn4       1.0  0.5330618912600981  0.9874752281948421  0.3873063678530979  1.0000
  P   P1        1.0  0.05719535975712008  0.3248851441569153  0.29817691103892013  1.0000
  P   P2        1.0  0.4635402439120982  0.9315926796882786  0.8502970742272047  1.0000
  P   P3        1.0  0.8799900994198396  0.6777682650825456  0.20492581818172756  1.0000
  P   P4        1.0  0.4531135483228985  0.08339887378498141  0.6009069559303449  1.0000
  S   S1        1.0  0.7094789518165849  0.907274606958035  0.5983579080348046  1.0000
  S   S2        1.0  0.4892198576024345  0.48985993987018145  0.3213701810962359  1.0000
  S   S3        1.0  0.8185097147715377  0.2864677219722087  0.1862739893856945  1.0000
  S   S4        1.0  0.32468537146783033  0.45384398850718716  0.18594216214937545  1.0000
  S   S5        1.0  0.5432275740814996  0.5866511553681175  0.9252472771782462  1.0000
  S   S6        1.0  0.5164834390074775  0.10358103672115664  0.9546875461617109  1.0000
  S   S7        1.0  0.11310451944419372  0.8389895971014063  0.7587288814786185  1.0000
  S   S8        1.0  0.032206282984266865  0.7501525515623305  0.527320208078597  1.0000
  S   S9        1.0  0.03539525037558988  0.7466140127029164  0.30733742745764725  1.0000
  S   S10       1.0  0.8660116341075459  0.88587463859134  0.9815900755123717  1.0000
  S   S11       1.0  0.5865590018487713  0.45281795524039836  0.5581861890617505  1.0000
  S   S12       1.0  0.9941444019852916  0.5936915516237699  0.9154113174303219  1.0000
data_image43
_chemical_formula_structural       Sn4P4S12
_chemical_formula_sum              "Sn4 P4 S12"
_cell_length_a       7.57141576
_cell_length_b       6.596566975487068
_cell_length_c       11.859499654632444
_cell_angle_alpha    56.10713322711195
_cell_angle_beta     90.0
_cell_angle_gamma    90.0

_space_group_name_H-M_alt    "P 1"
_space_group_IT_number       1

loop_
  _space_group_symop_operation_xyz
  'x, y, z'

loop_
  _atom_site_type_symbol
  _atom_site_label
  _atom_site_symmetry_multiplicity
  _atom_site_fract_x
  _atom_site_fract_y
  _atom_site_fract_z
  _atom_site_occupancy
  Sn  Sn1       1.0  0.8021944999957772  0.37385573972978314  0.7580038003058365  1.0000
  Sn  Sn2       1.0  0.07205094684080127  0.14845032224959254  0.06486031245948318  1.0000
  Sn  Sn3       1.0  0.2709506612164503  0.629645584720735  0.6512788536911123  1.0000
  Sn  Sn4       1.0  0.6022550437773707  0.07597136980185865  0.36544076793189595  1.0000
  P   P1        1.0  0.0263231248882312  0.2871805687917762  0.3211225500496896  1.0000
  P   P2        1.0  0.42000135685334905  0.865121205722759  0.8878992853249545  1.0000
  P   P3        1.0  0.8670286334485852  0.6791072455025032  0.2222759614808746  1.0000
  P   P4        1.0  0.4692879289236393  0.950264623541653  0.6539794978090696  1.0000
  S   S1        1.0  0.7259609747294894  0.9468327509947263  0.6193988115487059  1.0000
  S   S2        1.0  0.5983654995152615  0.49085699900701457  0.3232818902663712  1.0000
  S   S3        1.0  0.8671025378391579  0.2133612838403205  0.1883614754829843  1.0000
  S   S4        1.0  0.24804546965226718  0.49480197122782743  0.2113297107926016  1.0000
  S   S5        1.0  0.511789397032104  0.5131570047541865  0.9753117317379583  1.0000
  S   S6        1.0  0.4706363109217393  0.06670698776310283  0.9852231038956841  1.0000
  S   S7        1.0  0.1048490651901847  0.895147837826965  0.7371756237044589  1.0000
  S   S8        1.0  0.000715393929842767  0.7761696547142843  0.4698081484963063  1.0000
  S   S9        1.0  0.09445151654198258  0.6443252211375227  0.37064610786448515  1.0000
  S   S10       1.0  0.8727274613352984  0.8543519675740158  0.9392463022388228  1.0000
  S   S11       1.0  0.6534961511811382  0.520449884667896  0.4800603424119798  1.0000
  S   S12       1.0  0.9968907209422387  0.5780889252931916  0.8519060902892839  1.0000
data_image44
_chemical_formula_structural       Sn4P4S12
_chemical_formula_sum              "Sn4 P4 S12"
_cell_length_a       7.57141576
_cell_length_b       6.596566975487068
_cell_length_c       11.859499654632444
_cell_angle_alpha    56.10713322711195
_cell_angle_beta     90.0
_cell_angle_gamma    90.0

_space_group_name_H-M_alt    "P 1"
_space_group_IT_number       1

loop_
  _space_group_symop_operation_xyz
  'x, y, z'

loop_
  _atom_site_type_symbol
  _atom_site_label
  _atom_site_symmetry_multiplicity
  _atom_site_fract_x
  _atom_site_fract_y
  _atom_site_fract_z
  _atom_site_occupancy
  Sn  Sn1       1.0  0.7247083859272814  0.34363519573050727  0.7855000760988242  1.0000
  Sn  Sn2       1.0  0.11320691676809469  0.21281578280318025  0.02835180772057184  1.0000
  Sn  Sn3       1.0  0.27180594826621834  0.6143591825301624  0.6458016818174325  1.0000
  Sn  Sn4       1.0  0.6205082120854992  0.07168426428313962  0.3550070650833824  1.0000
  P   P1        1.0  0.01866146084194395  0.18969817798961006  0.29069668466934173  1.0000
  P   P2        1.0  0.48821395294330777  0.8126497012335684  0.9060452358961562  1.0000
  P   P3        1.0  0.9654194811845087  0.5684591147964253  0.23935817910113472  1.0000
  P   P4        1.0  0.3792452540705799  0.031147702665959984  0.6792462929236462  1.0000
  S   S1        1.0  0.6637727530705122  0.9743410802976928  0.6719983991182715  1.0000
  S   S2        1.0  0.7257570472297202  0.5770336043458658  0.32971030197446644  1.0000
  S   S3        1.0  0.8302789724567582  0.23502059103172512  0.13988490323902514  1.0000
  S   S4        1.0  0.2751813079887022  0.38681182931931635  0.1138819916319716  1.0000
  S   S5        1.0  0.4978916139663333  0.4647380178620709  0.9796133960623454  1.0000
  S   S6        1.0  0.4221951129450938  0.9879342720191163  0.9966974052008164  1.0000
  S   S7        1.0  0.11682216115741108  0.01663276905892405  0.7415519129688917  1.0000
  S   S8        1.0  0.9901070377124241  0.701037675001367  0.5024697121262997  1.0000
  S   S9        1.0  0.12456143531150765  0.5319506978619198  0.42672869365947075  1.0000
  S   S10       1.0  0.893106596437231  0.963927312488337  0.014079909494923326  1.0000
  S   S11       1.0  0.5579486842391208  0.5981496213231945  0.5052117720116132  1.0000
  S   S12       1.0  0.04827925595650684  0.6788230711474029  0.7933831987707277  1.0000
data_image45
_chemical_formula_structural       Sn4P4S12
_chemical_formula_sum              "Sn4 P4 S12"
_cell_length_a       7.57141576
_cell_length_b       6.596566975487068
_cell_length_c       11.859499654632444
_cell_angle_alpha    56.10713322711195
_cell_angle_beta     90.0
_cell_angle_gamma    90.0

_space_group_name_H-M_alt    "P 1"
_space_group_IT_number       1

loop_
  _space_group_symop_operation_xyz
  'x, y, z'

loop_
  _atom_site_type_symbol
  _atom_site_label
  _atom_site_symmetry_multiplicity
  _atom_site_fract_x
  _atom_site_fract_y
  _atom_site_fract_z
  _atom_site_occupancy
  Sn  Sn1       1.0  0.7072305601508604  0.24281226350979587  0.8440255475165669  1.0000
  Sn  Sn2       1.0  0.1201492879749626  0.2514628877704541  0.9894509659602212  1.0000
  Sn  Sn3       1.0  0.3160287136266318  0.6036242927540745  0.6667339788630643  1.0000
  Sn  Sn4       1.0  0.6083833586797673  0.06636049760352757  0.3589723124054932  1.0000
  P   P1        1.0  0.959889549101356  0.09775138720813036  0.3264023979624175  1.0000
  P   P2        1.0  0.370444760860014  0.8975442633256085  0.8885759319629565  1.0000
  P   P3        1.0  0.9175145812821133  0.5707908192713538  0.21832586538950155  1.0000
  P   P4        1.0  0.36271211091901456  0.12709319117935275  0.6869886165382836  1.0000
  S   S1        1.0  0.6314350779180591  0.040906560134618575  0.6820793655482655  1.0000
  S   S2        1.0  0.6931314499324354  0.6367897362287271  0.27367113918364266  1.0000
  S   S3        1.0  0.8380439322760171  0.2054427002042969  0.15352511693189602  1.0000
  S   S4        1.0  0.37586874459853736  0.34451757056315235  0.1483028477342957  1.0000
  S   S5        1.0  0.5206521140484623  0.5504679113642148  0.9608150105124272  1.0000
  S   S6        1.0  0.4856683931484287  0.003399024772259348  0.9975081851839762  1.0000
  S   S7        1.0  0.08177783824068262  0.1205649976497821  0.6513563387707303  1.0000
  S   S8        1.0  0.9968353211916432  0.6538820886681678  0.5028135518278527  1.0000
  S   S9        1.0  0.15317774398442507  0.61381555567914  0.39476788497461035  1.0000
  S   S10       1.0  0.986601982302567  0.9023791965519309  0.006556224149924628  1.0000
  S   S11       1.0  0.5236974059589823  0.5092702987355631  0.5075883119093577  1.0000
  S   S12       1.0  0.013551471084048305  0.7389873842910081  0.7652174786545852  1.0000
data_image46
_chemical_formula_structural       Sn4P4S12
_chemical_formula_sum              "Sn4 P4 S12"
_cell_length_a       7.57141576
_cell_length_b       6.596566975487068
_cell_length_c       11.859499654632444
_cell_angle_alpha    56.10713322711195
_cell_angle_beta     90.0
_cell_angle_gamma    90.0

_space_group_name_H-M_alt    "P 1"
_space_group_IT_number       1

loop_
  _space_group_symop_operation_xyz
  'x, y, z'

loop_
  _atom_site_type_symbol
  _atom_site_label
  _atom_site_symmetry_multiplicity
  _atom_site_fract_x
  _atom_site_fract_y
  _atom_site_fract_z
  _atom_site_occupancy
  Sn  Sn1       1.0  0.7527957164920217  0.2869258146683017  0.8236817511264675  1.0000
  Sn  Sn2       1.0  0.14597901858850548  0.26627403847522935  0.013565528684991394  1.0000
  Sn  Sn3       1.0  0.31831693018707097  0.5989955882205918  0.6970539940786421  1.0000
  Sn  Sn4       1.0  0.5640209544164265  0.057074850586867225  0.37387736686974443  1.0000
  P   P1        1.0  0.021847003097561806  0.14372282178596357  0.3432943594200881  1.0000
  P   P2        1.0  0.31591847506697923  0.8865200242477675  0.8971087896236937  1.0000
  P   P3        1.0  0.8722739012960126  0.5506016207468858  0.1891255400720159  1.0000
  P   P4        1.0  0.3688805934613029  0.08587611172583723  0.7004304687083581  1.0000
  S   S1        1.0  0.6359654165351126  0.924355177540964  0.7487945059332761  1.0000
  S   S2        1.0  0.6928860303427118  0.7433681419848295  0.2087512035986437  1.0000
  S   S3        1.0  0.8890715538387479  0.18368110783604097  0.16383639846315753  1.0000
  S   S4        1.0  0.40983916796662295  0.17612186689617151  0.16197032512930898  1.0000
  S   S5        1.0  0.4859527769990797  0.615511816420019  0.9089592665582816  1.0000
  S   S6        1.0  0.4001829238786614  0.9723406805250304  0.04034685171701824  1.0000
  S   S7        1.0  0.10190454271388157  0.17492769316799894  0.6031260092616554  1.0000
  S   S8        1.0  0.023990143427953914  0.7462897431096029  0.44852954103049597  1.0000
  S   S9        1.0  0.06794704351959702  0.6996035759529262  0.2745326628280076  1.0000
  S   S10       1.0  0.9058300207731298  0.6881060993638379  0.9970738331336109  1.0000
  S   S11       1.0  0.6189098106121945  0.4448332997501223  0.5957552410200363  1.0000
  S   S12       1.0  0.9911090040849975  0.8093593371359307  0.7007577690480734  1.0000
data_image47
_chemical_formula_structural       Sn4P4S12
_chemical_formula_sum              "Sn4 P4 S12"
_cell_length_a       7.57141576
_cell_length_b       6.596566975487068
_cell_length_c       11.859499654632444
_cell_angle_alpha    56.10713322711195
_cell_angle_beta     90.0
_cell_angle_gamma    90.0

_space_group_name_H-M_alt    "P 1"
_space_group_IT_number       1

loop_
  _space_group_symop_operation_xyz
  'x, y, z'

loop_
  _atom_site_type_symbol
  _atom_site_label
  _atom_site_symmetry_multiplicity
  _atom_site_fract_x
  _atom_site_fract_y
  _atom_site_fract_z
  _atom_site_occupancy
  Sn  Sn1       1.0  0.8046311299478448  0.37466714441770743  0.8068419422052708  1.0000
  Sn  Sn2       1.0  0.1419883659994945  0.22239775558886454  0.99952356375752  1.0000
  Sn  Sn3       1.0  0.30851200663254713  0.5623036692891102  0.6925192864342267  1.0000
  Sn  Sn4       1.0  0.5358545758702882  0.09341342461602456  0.3895874558981995  1.0000
  P   P1        1.0  0.08921745830814634  0.11830389976248128  0.3223757109063615  1.0000
  P   P2        1.0  0.31674959858437296  0.7986028234381307  0.9230784274049936  1.0000
  P   P3        1.0  0.8835139209342969  0.5998866727588225  0.20801566760979753  1.0000
  P   P4        1.0  0.3231775713283527  0.08908828149766443  0.6952891532291208  1.0000
  S   S1        1.0  0.6507701511474789  0.8723378834681125  0.7437169209194849  1.0000
  S   S2        1.0  0.6761783526799069  0.5828063735527004  0.3111370674904156  1.0000
  S   S3        1.0  0.8540328432555105  0.1853897636240216  0.21913321976346928  1.0000
  S   S4        1.0  0.316479823103837  0.13672623670853523  0.20258687698527997  1.0000
  S   S5        1.0  0.5406782246999431  0.5908973774961158  0.9133789412080994  1.0000
  S   S6        1.0  0.4098869025842229  0.061287717591329643  0.964247398526584  1.0000
  S   S7        1.0  0.12777982914455302  0.2178579315844684  0.5781174174693299  1.0000
  S   S8        1.0  0.02823917352249783  0.7631075057902554  0.4569594113821231  1.0000
  S   S9        1.0  0.10064532006921811  0.6738587394250799  0.2607809922759059  1.0000
  S   S10       1.0  0.8666083902413482  0.6139531879249427  0.04417270686073116  1.0000
  S   S11       1.0  0.5965184878457194  0.5401548546994319  0.5724198021372402  1.0000
  S   S12       1.0  0.9892541793627514  0.8369623705224712  0.6395332270363144  1.0000
data_image48
_chemical_formula_structural       Sn4P4S12
_chemical_formula_sum              "Sn4 P4 S12"
_cell_length_a       7.57141576
_cell_length_b       6.596566975487068
_cell_length_c       11.859499654632444
_cell_angle_alpha    56.10713322711195
_cell_angle_beta     90.0
_cell_angle_gamma    90.0

_space_group_name_H-M_alt    "P 1"
_space_group_IT_number       1

loop_
  _space_group_symop_operation_xyz
  'x, y, z'

loop_
  _atom_site_type_symbol
  _atom_site_label
  _atom_site_symmetry_multiplicity
  _atom_site_fract_x
  _atom_site_fract_y
  _atom_site_fract_z
  _atom_site_occupancy
  Sn  Sn1       1.0  0.7806917133122828  0.4552217004771458  0.7686152977622411  1.0000
  Sn  Sn2       1.0  0.0347202888711875  0.12352670241822272  0.9689806749905787  1.0000
  Sn  Sn3       1.0  0.3153316399543389  0.4866136547895674  0.6886133109551248  1.0000
  Sn  Sn4       1.0  0.607225210051432  0.12400013392065229  0.39348895737946504  1.0000
  P   P1        1.0  0.0875225229142199  0.11475558131194785  0.31243665185808106  1.0000
  P   P2        1.0  0.3641063847383205  0.8267425061903316  0.9446232561877808  1.0000
  P   P3        1.0  0.8618555535499413  0.6958914453293896  0.2254897826604397  1.0000
  P   P4        1.0  0.3573573131405097  0.021307865815148444  0.7421130617172802  1.0000
  S   S1        1.0  0.6308345505842862  0.9469486263248431  0.7479367595066818  1.0000
  S   S2        1.0  0.6144228387757166  0.5876004678951446  0.29631324943493814  1.0000
  S   S3        1.0  0.8300439952576999  0.18313711984480396  0.19492272694301546  1.0000
  S   S4        1.0  0.3375530926921462  0.17370254763542126  0.235406061909126  1.0000
  S   S5        1.0  0.5383128558511368  0.5418392793303706  0.938677154405683  1.0000
  S   S6        1.0  0.49627341118219626  0.06289452789703863  0.9859435236934413  1.0000
  S   S7        1.0  0.17710508473890504  0.10758638147039463  0.6062844168415616  1.0000
  S   S8        1.0  0.06404855406883248  0.7831500216712826  0.49392878202310697  1.0000
  S   S9        1.0  0.09310803299853299  0.6299508266597239  0.3015842142610512  1.0000
  S   S10       1.0  0.9164639775974508  0.7837702858925015  0.9990923122988765  1.0000
  S   S11       1.0  0.619526000824821  0.642442369773919  0.5539768878501071  1.0000
  S   S12       1.0  0.9799264449285465  0.8148944281124756  0.7343100602062568  1.0000
data_image49
_chemical_formula_structural       Sn4P4S12
_chemical_formula_sum              "Sn4 P4 S12"
_cell_length_a       7.57141576
_cell_length_b       6.596566975487068
_cell_length_c       11.859499654632444
_cell_angle_alpha    56.10713322711195
_cell_angle_beta     90.0
_cell_angle_gamma    90.0

_space_group_name_H-M_alt    "P 1"
_space_group_IT_number       1

loop_
  _space_group_symop_operation_xyz
  'x, y, z'

loop_
  _atom_site_type_symbol
  _atom_site_label
  _atom_site_symmetry_multiplicity
  _atom_site_fract_x
  _atom_site_fract_y
  _atom_site_fract_z
  _atom_site_occupancy
  Sn  Sn1       1.0  0.7670271244547395  0.4910726744791999  0.7410037519587312  1.0000
  Sn  Sn2       1.0  0.015806960198137654  0.0928671364350444  0.9685718076000295  1.0000
  Sn  Sn3       1.0  0.26520723360641696  0.408334307258161  0.7287682591120255  1.0000
  Sn  Sn4       1.0  0.6359793039637806  0.13986425726440369  0.40403711890588767  1.0000
  P   P1        1.0  0.11911709948787073  0.14991270772853507  0.3021889696389622  1.0000
  P   P2        1.0  0.38160688831847084  0.7315024257144381  0.9928987275785024  1.0000
  P   P3        1.0  0.8566430465310344  0.7339705034693788  0.18029776445870585  1.0000
  P   P4        1.0  0.4885601096714695  0.026162667588913436  0.729324950404217  1.0000
  S   S1        1.0  0.7414607662855824  0.9628185579220622  0.7195226542331653  1.0000
  S   S2        1.0  0.5796581015682293  0.7109942512416658  0.2236164878658379  1.0000
  S   S3        1.0  0.816850583258527  0.1774346503263613  0.20390355291920867  1.0000
  S   S4        1.0  0.36037322953783457  0.15146060231834776  0.23422413458475463  1.0000
  S   S5        1.0  0.49484978452338946  0.6470693142108451  0.8738685920434344  1.0000
  S   S6        1.0  0.42448886564547195  0.10074700392647377  0.9542935185369849  1.0000
  S   S7        1.0  0.2660612146276893  0.031133860270293242  0.6339009809442196  1.0000
  S   S8        1.0  0.04750731264927843  0.8729409868338276  0.491614843154006  1.0000
  S   S9        1.0  0.09503732358131312  0.8182896150181057  0.23706213946595578  1.0000
  S   S10       1.0  0.7952302870020499  0.6027453760541832  0.046587898533104743  1.0000
  S   S11       1.0  0.5404352076262124  0.6130112347979824  0.5734963906807045  1.0000
  S   S12       1.0  0.17140740287702982  0.7974550267351972  0.832140368789198  1.0000
data_image50
_chemical_formula_structural       Sn4P4S12
_chemical_formula_sum              "Sn4 P4 S12"
_cell_length_a       7.57141576
_cell_length_b       6.596566975487068
_cell_length_c       11.859499654632444
_cell_angle_alpha    56.10713322711195
_cell_angle_beta     90.0
_cell_angle_gamma    90.0

_space_group_name_H-M_alt    "P 1"
_space_group_IT_number       1

loop_
  _space_group_symop_operation_xyz
  'x, y, z'

loop_
  _atom_site_type_symbol
  _atom_site_label
  _atom_site_symmetry_multiplicity
  _atom_site_fract_x
  _atom_site_fract_y
  _atom_site_fract_z
  _atom_site_occupancy
  Sn  Sn1       1.0  0.787323631139015  0.5659342784023019  0.6918552643455257  1.0000
  Sn  Sn2       1.0  0.016442793283001356  0.046614171141751815  0.9747703842684542  1.0000
  Sn  Sn3       1.0  0.26556980398127605  0.47390214727798263  0.721495133127974  1.0000
  Sn  Sn4       1.0  0.5680349346393236  0.23571592946941158  0.4215480141928336  1.0000
  P   P1        1.0  0.1321962693253389  0.12274891031937696  0.2601288642640665  1.0000
  P   P2        1.0  0.34088744881780825  0.6446397869579347  0.005824278881395584  1.0000
  P   P3        1.0  0.7675794912399018  0.5747821392449284  0.2538100617453304  1.0000
  P   P4        1.0  0.5595015981885425  0.8059273660476229  0.8011972982967981  1.0000
  S   S1        1.0  0.827087617090535  0.9901139483635496  0.6365787578791791  1.0000
  S   S2        1.0  0.5658637388903583  0.7897665131359107  0.2176764534652749  1.0000
  S   S3        1.0  0.8429942585965996  0.2471970926100402  0.15069905991068205  1.0000
  S   S4        1.0  0.4301646960597776  0.16178307093133903  0.23990558224633135  1.0000
  S   S5        1.0  0.5306388409774069  0.4592016066521193  0.8647478223527786  1.0000
  S   S6        1.0  0.42406938657587556  0.9042501936367645  0.033577645347274254  1.0000
  S   S7        1.0  0.3020191127753784  0.9550703802115726  0.7100916631925354  1.0000
  S   S8        1.0  0.03279292110044407  0.9961017207615286  0.4736698062979851  1.0000
  S   S9        1.0  0.17502977417788101  0.8245449914268983  0.24776457136428287  1.0000
  S   S10       1.0  0.8093289648558352  0.6381358779929092  0.05894325505198217  1.0000
  S   S11       1.0  0.5010850291056217  0.5705198193023195  0.52264780960645  1.0000
  S   S12       1.0  0.11043789664895765  0.721809805718045  0.8771018161710487  1.0000
data_image51
_chemical_formula_structural       Sn4P4S12
_chemical_formula_sum              "Sn4 P4 S12"
_cell_length_a       7.57141576
_cell_length_b       6.596566975487068
_cell_length_c       11.859499654632444
_cell_angle_alpha    56.10713322711195
_cell_angle_beta     90.0
_cell_angle_gamma    90.0

_space_group_name_H-M_alt    "P 1"
_space_group_IT_number       1

loop_
  _space_group_symop_operation_xyz
  'x, y, z'

loop_
  _atom_site_type_symbol
  _atom_site_label
  _atom_site_symmetry_multiplicity
  _atom_site_fract_x
  _atom_site_fract_y
  _atom_site_fract_z
  _atom_site_occupancy
  Sn  Sn1       1.0  0.7506503382553659  0.504070072249804  0.6725108635976651  1.0000
  Sn  Sn2       1.0  0.05758028836482154  0.06500208079595149  0.9483901312644142  1.0000
  Sn  Sn3       1.0  0.2470730025164559  0.5776779552220168  0.6912606057288857  1.0000
  Sn  Sn4       1.0  0.5026155485584994  0.2835416801146259  0.46403780063898775  1.0000
  P   P1        1.0  0.09608762288833175  0.07263626632213085  0.24234191078613662  1.0000
  P   P2        1.0  0.3295800822860552  0.6297315673083922  0.9785488813225991  1.0000
  P   P3        1.0  0.8450307785343005  0.49746567456986696  0.3209831437037612  1.0000
  P   P4        1.0  0.5983008160971967  0.6935738099895052  0.88789333090369  1.0000
  S   S1        1.0  0.8199993861751169  0.03806830021429941  0.552488699910555  1.0000
  S   S2        1.0  0.6336777958937402  0.7363397905127361  0.24983529059024892  1.0000
  S   S3        1.0  0.9470694138245136  0.32503226007189423  0.0986899167662077  1.0000
  S   S4        1.0  0.32165183673417697  0.27900315280806937  0.18463277306428338  1.0000
  S   S5        1.0  0.5609243031089204  0.33421774350361433  0.9627694254036816  1.0000
  S   S6        1.0  0.41934900276113285  0.777933081737181  0.06257284236253402  1.0000
  S   S7        1.0  0.40337362567896246  0.9300968325439928  0.6763845071825141  1.0000
  S   S8        1.0  0.08934989986701902  0.07614882283058329  0.42468889646690233  1.0000
  S   S9        1.0  0.09395649028741104  0.7530259332825715  0.2526331660712453  1.0000
  S   S10       1.0  0.8837032450146459  0.5711916305996936  0.13290096131952978  1.0000
  S   S11       1.0  0.5175332079858981  0.5681869011094265  0.549146690466813  1.0000
  S   S12       1.0  0.08764097446696151  0.7200787029270659  0.9052964537490285  1.0000
data_image52
_chemical_formula_structural       Sn4P4S12
_chemical_formula_sum              "Sn4 P4 S12"
_cell_length_a       7.57141576
_cell_length_b       6.596566975487068
_cell_length_c       11.859499654632444
_cell_angle_alpha    56.10713322711195
_cell_angle_beta     90.0
_cell_angle_gamma    90.0

_space_group_name_H-M_alt    "P 1"
_space_group_IT_number       1

loop_
  _space_group_symop_operation_xyz
  'x, y, z'

loop_
  _atom_site_type_symbol
  _atom_site_label
  _atom_site_symmetry_multiplicity
  _atom_site_fract_x
  _atom_site_fract_y
  _atom_site_fract_z
  _atom_site_occupancy
  Sn  Sn1       1.0  0.7504350245946566  0.44832681773721145  0.6756055169997797  1.0000
  Sn  Sn2       1.0  0.10087284197446822  0.059785532050582235  0.9401100684756649  1.0000
  Sn  Sn3       1.0  0.2071554411761584  0.5754798883989355  0.7148183820117707  1.0000
  Sn  Sn4       1.0  0.4352369892111947  0.306447228398654  0.46826325294992716  1.0000
  P   P1        1.0  0.1467355701576174  0.03646427904082252  0.29096719289151113  1.0000
  P   P2        1.0  0.2680086972957999  0.6174355913433736  0.9983305365192799  1.0000
  P   P3        1.0  0.8700384176876648  0.5903639277020223  0.3211664451410301  1.0000
  P   P4        1.0  0.66033156041154  0.6363776816526603  0.8415799059364019  1.0000
  S   S1        1.0  0.8255069654946503  0.04000940343059911  0.5121899578976821  1.0000
  S   S2        1.0  0.7518212668729124  0.87800248080941  0.2691819531411205  1.0000
  S   S3        1.0  0.9065718019661541  0.2958589422026543  0.12874939870445176  1.0000
  S   S4        1.0  0.37219775364766483  0.21043630437386018  0.2120112267193312  1.0000
  S   S5        1.0  0.5575597870478314  0.3248202909059261  0.8705664228584066  1.0000
  S   S6        1.0  0.4073821319027573  0.8584321451334717  0.05677177640879827  1.0000
  S   S7        1.0  0.4656589993489307  0.8778651379124727  0.6944314909696554  1.0000
  S   S8        1.0  0.09801996802144819  0.9840755091689884  0.4996436920275123  1.0000
  S   S9        1.0  0.18748684388583126  0.7543676142807118  0.26395123887398086  1.0000
  S   S10       1.0  0.8419033935701957  0.569849842725884  0.11340200024890557  1.0000
  S   S11       1.0  0.4224175572675942  0.6397338838029476  0.5147844305510674  1.0000
  S   S12       1.0  0.10273245880496318  0.8401564793925299  0.8107029620850279  1.0000
data_image53
_chemical_formula_structural       Sn4P4S12
_chemical_formula_sum              "Sn4 P4 S12"
_cell_length_a       7.57141576
_cell_length_b       6.596566975487068
_cell_length_c       11.859499654632444
_cell_angle_alpha    56.10713322711195
_cell_angle_beta     90.0
_cell_angle_gamma    90.0

_space_group_name_H-M_alt    "P 1"
_space_group_IT_number       1

loop_
  _space_group_symop_operation_xyz
  'x, y, z'

loop_
  _atom_site_type_symbol
  _atom_site_label
  _atom_site_symmetry_multiplicity
  _atom_site_fract_x
  _atom_site_fract_y
  _atom_site_fract_z
  _atom_site_occupancy
  Sn  Sn1       1.0  0.7295557886924491  0.48890481109605727  0.6458129278286352  1.0000
  Sn  Sn2       1.0  0.11772203101152012  0.024619605797878696  0.9656844280789818  1.0000
  Sn  Sn3       1.0  0.21882702798169396  0.550938931714078  0.7239508984443677  1.0000
  Sn  Sn4       1.0  0.4266559515859902  0.33783146624295207  0.4626128639409814  1.0000
  P   P1        1.0  0.15878063762488692  0.001603503315925634  0.2739298927130033  1.0000
  P   P2        1.0  0.19711041153955222  0.5897204651869487  0.9623564027871738  1.0000
  P   P3        1.0  0.8379446853541194  0.6661467820951504  0.24066611991584771  1.0000
  P   P4        1.0  0.6734207751377294  0.6550256102567215  0.8130551491896715  1.0000
  S   S1        1.0  0.8584696106388106  0.015307616225735288  0.569165492240034  1.0000
  S   S2        1.0  0.7867588867659592  0.8751951727175304  0.33904033594809707  1.0000
  S   S3        1.0  0.9756814223070199  0.21325695921720422  0.10837836301968491  1.0000
  S   S4        1.0  0.36020157413481213  0.21581347082816146  0.26622140382158493  1.0000
  S   S5        1.0  0.6472559851541089  0.3135701804704073  0.9356632829764888  1.0000
  S   S6        1.0  0.40416193553263  0.760704216550369  0.0054035041903301995  1.0000
  S   S7        1.0  0.4688265860550021  0.9263572908618477  0.7359643189000329  1.0000
  S   S8        1.0  0.05801998084450033  0.9868611930706702  0.4718043065884188  1.0000
  S   S9        1.0  0.14734205634406639  0.673474508330446  0.2827204744874512  1.0000
  S   S10       1.0  0.8328506908040858  0.7381174354980771  0.056118794900223756  1.0000
  S   S11       1.0  0.4165082514023051  0.61334172330082  0.5510038569866289  1.0000
  S   S12       1.0  0.06193471275339446  0.8684145660252567  0.784767083884469  1.0000
data_image54
_chemical_formula_structural       Sn4P4S12
_chemical_formula_sum              "Sn4 P4 S12"
_cell_length_a       7.57141576
_cell_length_b       6.596566975487068
_cell_length_c       11.859499654632444
_cell_angle_alpha    56.10713322711195
_cell_angle_beta     90.0
_cell_angle_gamma    90.0

_space_group_name_H-M_alt    "P 1"
_space_group_IT_number       1

loop_
  _space_group_symop_operation_xyz
  'x, y, z'

loop_
  _atom_site_type_symbol
  _atom_site_label
  _atom_site_symmetry_multiplicity
  _atom_site_fract_x
  _atom_site_fract_y
  _atom_site_fract_z
  _atom_site_occupancy
  Sn  Sn1       1.0  0.7457621224875032  0.4957256531302909  0.6386971624468096  1.0000
  Sn  Sn2       1.0  0.13242589445739927  0.03584624062637798  0.9695865336099299  1.0000
  Sn  Sn3       1.0  0.2516434306015157  0.5781106395286583  0.7061227154543184  1.0000
  Sn  Sn4       1.0  0.4135856490749917  0.2910086837077663  0.45000743818157307  1.0000
  P   P1        1.0  0.16155073542421322  0.987939026779387  0.29869665763437026  1.0000
  P   P2        1.0  0.21757830298787306  0.542598672854996  0.9688714443940295  1.0000
  P   P3        1.0  0.7519180362464495  0.5681699184719767  0.32342817638312765  1.0000
  P   P4        1.0  0.6477456249187615  0.7277729542730249  0.7825788972394075  1.0000
  S   S1        1.0  0.850402860074711  0.19632456845935686  0.5151564417656675  1.0000
  S   S2        1.0  0.7828187721701488  0.8320672181447745  0.36317077986405666  1.0000
  S   S3        1.0  0.9971917567637589  0.27988437204116323  0.10885366623524179  1.0000
  S   S4        1.0  0.3692640495147981  0.18578717319302004  0.2507218461148848  1.0000
  S   S5        1.0  0.5393863713217031  0.37332515859013227  0.9105229727718038  1.0000
  S   S6        1.0  0.4451639352732064  0.6558344704191106  0.02706687087438331  1.0000
  S   S7        1.0  0.39728652432511496  0.922115257927644  0.6888633310030783  1.0000
  S   S8        1.0  0.04943552696530418  0.9827372654712363  0.5228322947922244  1.0000
  S   S9        1.0  0.23627250289374624  0.7486072450990738  0.24496960081610264  1.0000
  S   S10       1.0  0.8255053803589327  0.7773459382317542  0.1321899334986354  1.0000
  S   S11       1.0  0.45951562239735255  0.5963777026875874  0.5360356669119695  1.0000
  S   S12       1.0  0.9620899620659613  0.7399485312873841  0.8476546662911941  1.0000
data_image55
_chemical_formula_structural       Sn4P4S12
_chemical_formula_sum              "Sn4 P4 S12"
_cell_length_a       7.57141576
_cell_length_b       6.596566975487068
_cell_length_c       11.859499654632444
_cell_angle_alpha    56.10713322711195
_cell_angle_beta     90.0
_cell_angle_gamma    90.0

_space_group_name_H-M_alt    "P 1"
_space_group_IT_number       1

loop_
  _space_group_symop_operation_xyz
  'x, y, z'

loop_
  _atom_site_type_symbol
  _atom_site_label
  _atom_site_symmetry_multiplicity
  _atom_site_fract_x
  _atom_site_fract_y
  _atom_site_fract_z
  _atom_site_occupancy
  Sn  Sn1       1.0  0.7429724443827488  0.48062389036053876  0.637627949081924  1.0000
  Sn  Sn2       1.0  0.15059152466452774  0.9958233624092793  0.9794709329433545  1.0000
  Sn  Sn3       1.0  0.24612203807844743  0.4587818017160464  0.7429751310516062  1.0000
  Sn  Sn4       1.0  0.38665824596372683  0.32391057429761144  0.4164572297545383  1.0000
  P   P1        1.0  0.1659386147261962  0.9450682414026907  0.31765696530683596  1.0000
  P   P2        1.0  0.2287563821577676  0.41152144736195156  0.03428201583791157  1.0000
  P   P3        1.0  0.7543107808309607  0.5497763885817402  0.3008765326206135  1.0000
  P   P4        1.0  0.5873375123211338  0.7784753231226675  0.7498204939986047  1.0000
  S   S1        1.0  0.7993145510873726  0.1966050258774008  0.5178907520797834  1.0000
  S   S2        1.0  0.8048891049403046  0.8278882412654436  0.3456778490224219  1.0000
  S   S3        1.0  0.00015278830078235828  0.24196202776143183  0.15508750346201167  1.0000
  S   S4        1.0  0.4526482422751558  0.1297016386361645  0.27476232850674565  1.0000
  S   S5        1.0  0.5402261608545285  0.3743415875992395  0.8863477496938993  1.0000
  S   S6        1.0  0.41728296197657433  0.7453565740035045  0.018502211379673117  1.0000
  S   S7        1.0  0.42406714158525116  0.12084721070295767  0.6786492996198124  1.0000
  S   S8        1.0  0.06107410919511813  0.12126453256749366  0.48141204925559977  1.0000
  S   S9        1.0  0.32433372831199603  0.8644725589208788  0.1960127175663875  1.0000
  S   S10       1.0  0.742183213107243  0.9415492535224742  0.13963697279448728  1.0000
  S   S11       1.0  0.4158516086913121  0.6444020076499357  0.4895372248199471  1.0000
  S   S12       1.0  0.03724752707944612  0.7418279028747743  0.892415744633692  1.0000
data_image56
_chemical_formula_structural       Sn4P4S12
_chemical_formula_sum              "Sn4 P4 S12"
_cell_length_a       7.57141576
_cell_length_b       6.596566975487068
_cell_length_c       11.859499654632444
_cell_angle_alpha    56.10713322711195
_cell_angle_beta     90.0
_cell_angle_gamma    90.0

_space_group_name_H-M_alt    "P 1"
_space_group_IT_number       1

loop_
  _space_group_symop_operation_xyz
  'x, y, z'

loop_
  _atom_site_type_symbol
  _atom_site_label
  _atom_site_symmetry_multiplicity
  _atom_site_fract_x
  _atom_site_fract_y
  _atom_site_fract_z
  _atom_site_occupancy
  Sn  Sn1       1.0  0.7567461315458871  0.45937293345213753  0.6271992255865998  1.0000
  Sn  Sn2       1.0  0.14079394706694237  0.9351058512311526  0.03067501048176666  1.0000
  Sn  Sn3       1.0  0.22587297580014265  0.4235500537135388  0.7613611688472575  1.0000
  Sn  Sn4       1.0  0.3528742887186349  0.2901978734161318  0.40305117271806673  1.0000
  P   P1        1.0  0.2757820299059313  0.9124251366884547  0.33489545021114586  1.0000
  P   P2        1.0  0.19196639545458746  0.5726129778086947  0.9844660479316165  1.0000
  P   P3        1.0  0.8712571955240941  0.6484035305617957  0.23499031340237184  1.0000
  P   P4        1.0  0.5720379728179661  0.8301312334038476  0.7892708163544097  1.0000
  S   S1        1.0  0.7535362899309731  0.3386534284595586  0.4263603362467936  1.0000
  S   S2        1.0  0.8048421135668025  0.7652638798700502  0.3610964796505287  1.0000
  S   S3        1.0  0.07515376742380409  0.2813448384908226  0.17498465945661873  1.0000
  S   S4        1.0  0.4269441438164662  0.21390105041266166  0.21205243170333504  1.0000
  S   S5        1.0  0.5719917788273425  0.4729344389360114  0.8454104453952556  1.0000
  S   S6        1.0  0.4906781956140056  0.7150396638760177  0.9698388661354611  1.0000
  S   S7        1.0  0.3760988464409168  0.11515575380205666  0.6728715087213075  1.0000
  S   S8        1.0  0.01621339204345995  0.15642108613608252  0.49913866136411555  1.0000
  S   S9        1.0  0.39829493598663035  0.7079557340505012  0.2630535837502108  1.0000
  S   S10       1.0  0.7464436629840625  0.9633534244421527  0.15397748193855465  1.0000
  S   S11       1.0  0.39598635070835114  0.7513035153805014  0.5257473982546166  1.0000
  S   S12       1.0  0.9804923425288519  0.7625618911116986  0.858790926696888  1.0000
data_image57
_chemical_formula_structural       Sn4P4S12
_chemical_formula_sum              "Sn4 P4 S12"
_cell_length_a       7.57141576
_cell_length_b       6.596566975487068
_cell_length_c       11.859499654632444
_cell_angle_alpha    56.10713322711195
_cell_angle_beta     90.0
_cell_angle_gamma    90.0

_space_group_name_H-M_alt    "P 1"
_space_group_IT_number       1

loop_
  _space_group_symop_operation_xyz
  'x, y, z'

loop_
  _atom_site_type_symbol
  _atom_site_label
  _atom_site_symmetry_multiplicity
  _atom_site_fract_x
  _atom_site_fract_y
  _atom_site_fract_z
  _atom_site_occupancy
  Sn  Sn1       1.0  0.7966290804679373  0.44247441120876957  0.6261601108871812  1.0000
  Sn  Sn2       1.0  0.1508276508971078  0.8984178662230126  0.07958613022532407  1.0000
  Sn  Sn3       1.0  0.28982182547841684  0.36757332683625116  0.7908271065514543  1.0000
  Sn  Sn4       1.0  0.28865248418013134  0.22341679545041573  0.43219342946292605  1.0000
  P   P1        1.0  0.29865681306979686  0.9049891752589204  0.29750202460049624  1.0000
  P   P2        1.0  0.20788768681752068  0.603929854732488  0.9599358500625159  1.0000
  P   P3        1.0  0.8389226687248188  0.7079832359509268  0.2285319076126866  1.0000
  P   P4        1.0  0.549291805825793  0.870796282609256  0.7731554742911007  1.0000
  S   S1        1.0  0.7498672065623747  0.360655499262476  0.3874546854590843  1.0000
  S   S2        1.0  0.8500004654332607  0.9327632885827142  0.31996585935139665  1.0000
  S   S3        1.0  0.032378921045569165  0.44303422345758636  0.1126654645817978  1.0000
  S   S4        1.0  0.5119663057782216  0.20198235775272874  0.2065241646068929  1.0000
  S   S5        1.0  0.5925070447441043  0.5354018410540432  0.7936118051551506  1.0000
  S   S6        1.0  0.4498230938054688  0.80911393756973  0.9647840971864993  1.0000
  S   S7        1.0  0.32097963983845906  0.15167521295968112  0.673487842048572  1.0000
  S   S8        1.0  0.9476892230335654  0.07091931409177767  0.5466282128137205  1.0000
  S   S9        1.0  0.3793828178346512  0.6560881830979652  0.2378791487198988  1.0000
  S   S10       1.0  0.6507818430986327  0.05485969459389397  0.11507717946057405  1.0000
  S   S11       1.0  0.3716839534369426  0.6988548482134298  0.5258816015974632  1.0000
  S   S12       1.0  0.009821233982582722  0.8524392670196146  0.7681385471901379  1.0000
data_image58
_chemical_formula_structural       Sn4P4S12
_chemical_formula_sum              "Sn4 P4 S12"
_cell_length_a       7.57141576
_cell_length_b       6.596566975487068
_cell_length_c       11.859499654632444
_cell_angle_alpha    56.10713322711195
_cell_angle_beta     90.0
_cell_angle_gamma    90.0

_space_group_name_H-M_alt    "P 1"
_space_group_IT_number       1

loop_
  _space_group_symop_operation_xyz
  'x, y, z'

loop_
  _atom_site_type_symbol
  _atom_site_label
  _atom_site_symmetry_multiplicity
  _atom_site_fract_x
  _atom_site_fract_y
  _atom_site_fract_z
  _atom_site_occupancy
  Sn  Sn1       1.0  0.8306442013897424  0.48318914960614223  0.5845124847948753  1.0000
  Sn  Sn2       1.0  0.14683031234084165  0.8920035054806752  0.09049495382563531  1.0000
  Sn  Sn3       1.0  0.29018231329131217  0.3361733587812761  0.786484218592436  1.0000
  Sn  Sn4       1.0  0.27175157851743875  0.19488319062654147  0.43315808247266474  1.0000
  P   P1        1.0  0.32361117030692077  0.8304768356384643  0.3712791009923811  1.0000
  P   P2        1.0  0.2015267562647722  0.6932119770813209  0.8908707185769461  1.0000
  P   P3        1.0  0.8187812659783649  0.7756152417683557  0.2625269399720527  1.0000
  P   P4        1.0  0.5990570902832186  0.887832801017029  0.775312357816478  1.0000
  S   S1        1.0  0.7164579171651964  0.43434654959419006  0.3703991921194179  1.0000
  S   S2        1.0  0.9499723444994328  0.8351715998194718  0.39341242957979444  1.0000
  S   S3        1.0  0.03447422165889957  0.48627935882277007  0.11753128412866212  1.0000
  S   S4        1.0  0.5185598877835286  0.19762605389414029  0.19463633507595424  1.0000
  S   S5        1.0  0.5889251413692032  0.5559621779301132  0.8072615442606805  1.0000
  S   S6        1.0  0.4071744450857424  0.8182042532010717  0.9400896278643059  1.0000
  S   S7        1.0  0.29678590333500676  0.06167107355029021  0.672563085559639  1.0000
  S   S8        1.0  0.9253104557811063  0.057591442166416616  0.5483805713993656  1.0000
  S   S9        1.0  0.37844250765365617  0.635170738496036  0.2854558896381658  1.0000
  S   S10       1.0  0.6242278881531697  0.05642398230611766  0.09725424812588068  1.0000
  S   S11       1.0  0.4663362473811942  0.6751590966888168  0.5528915244213539  1.0000
  S   S12       1.0  0.8615794883076299  0.9575355036537108  0.756511299377186  1.0000
data_image59
_chemical_formula_structural       Sn4P4S12
_chemical_formula_sum              "Sn4 P4 S12"
_cell_length_a       7.57141576
_cell_length_b       6.596566975487068
_cell_length_c       11.859499654632444
_cell_angle_alpha    56.10713322711195
_cell_angle_beta     90.0
_cell_angle_gamma    90.0

_space_group_name_H-M_alt    "P 1"
_space_group_IT_number       1

loop_
  _space_group_symop_operation_xyz
  'x, y, z'

loop_
  _atom_site_type_symbol
  _atom_site_label
  _atom_site_symmetry_multiplicity
  _atom_site_fract_x
  _atom_site_fract_y
  _atom_site_fract_z
  _atom_site_occupancy
  Sn  Sn1       1.0  0.8458171600609881  0.522957751121481  0.5709787975710195  1.0000
  Sn  Sn2       1.0  0.1264214691548755  0.9361366723311435  0.06025387252349415  1.0000
  Sn  Sn3       1.0  0.23695431738203088  0.3404932963534227  0.750082726444971  1.0000
  Sn  Sn4       1.0  0.26596473083910793  0.22205863790046104  0.4013245866852102  1.0000
  P   P1        1.0  0.3902440483231247  0.8753348331789873  0.3842979700047632  1.0000
  P   P2        1.0  0.1480102750789674  0.6409589394666915  0.883011095146394  1.0000
  P   P3        1.0  0.843286360439974  0.6357193389697879  0.296498516072025  1.0000
  P   P4        1.0  0.5680937451260704  0.8227500544710299  0.8008478541728357  1.0000
  S   S1        1.0  0.6456936701523797  0.3882056500178106  0.41507463534287464  1.0000
  S   S2        1.0  0.9153868949357961  0.8755702006517553  0.32815330087078065  1.0000
  S   S3        1.0  0.06897552969432419  0.49804571216324023  0.15132140057816623  1.0000
  S   S4        1.0  0.5421155727125404  0.18063776781085955  0.2786491980366742  1.0000
  S   S5        1.0  0.6475256290452314  0.47987911619546897  0.8455796497156675  1.0000
  S   S6        1.0  0.44606620181300594  0.7108955203782584  0.9937233877575896  1.0000
  S   S7        1.0  0.33108956400616396  0.04576701868708513  0.6656857557282808  1.0000
  S   S8        1.0  0.9469323622518817  0.11332958770694915  0.6167688630819933  1.0000
  S   S9        1.0  0.39333765914670504  0.7313224809319236  0.2370852710790674  1.0000
  S   S10       1.0  0.621713714723259  0.9070232127701725  0.15081180161346652  1.0000
  S   S11       1.0  0.5003974951603515  0.6919319323828266  0.5799987189215876  1.0000
  S   S12       1.0  0.9411275832027314  0.9199487215655451  0.8259506625928643  1.0000
data_image60
_chemical_formula_structural       Sn4P4S12
_chemical_formula_sum              "Sn4 P4 S12"
_cell_length_a       7.57141576
_cell_length_b       6.596566975487068
_cell_length_c       11.859499654632444
_cell_angle_alpha    56.10713322711195
_cell_angle_beta     90.0
_cell_angle_gamma    90.0

_space_group_name_H-M_alt    "P 1"
_space_group_IT_number       1

loop_
  _space_group_symop_operation_xyz
  'x, y, z'

loop_
  _atom_site_type_symbol
  _atom_site_label
  _atom_site_symmetry_multiplicity
  _atom_site_fract_x
  _atom_site_fract_y
  _atom_site_fract_z
  _atom_site_occupancy
  Sn  Sn1       1.0  0.8893769224298202  0.6829479353443274  0.5472447971826792  1.0000
  Sn  Sn2       1.0  0.08530887933991305  0.013120317698531947  0.027820287622079828  1.0000
  Sn  Sn3       1.0  0.21821790417907946  0.3578982397667286  0.7301878931168073  1.0000
  Sn  Sn4       1.0  0.235997258069947  0.30463386924900715  0.36869657292980534  1.0000
  P   P1        1.0  0.36868454607825346  0.7978390931692718  0.4066698380038814  1.0000
  P   P2        1.0  0.24603859190069632  0.675876404150057  0.8466302923147028  1.0000
  P   P3        1.0  0.7940151023889782  0.5083265277484476  0.33216549651075755  1.0000
  P   P4        1.0  0.5823472161495058  0.7325220732310329  0.8499979948131895  1.0000
  S   S1        1.0  0.7069309863164894  0.2708371839315524  0.5169176025125517  1.0000
  S   S2        1.0  0.009005968510338747  0.7716761851824282  0.3042411004859488  1.0000
  S   S3        1.0  0.9044428707232594  0.4075205525485046  0.20609804164213244  1.0000
  S   S4        1.0  0.50564665088285  0.10619600707423958  0.2997444320179453  1.0000
  S   S5        1.0  0.65569576102369  0.4235230806789191  0.8807227235408818  1.0000
  S   S6        1.0  0.3735444625472746  0.5746784785434436  0.9987090454036782  1.0000
  S   S7        1.0  0.3570683177886536  0.027110178266805642  0.7281717713748004  1.0000
  S   S8        1.0  0.0754051974423231  0.1741736941645006  0.5885340374837046  1.0000
  S   S9        1.0  0.3835881738459819  0.7060552444108361  0.22113205551674486  1.0000
  S   S10       1.0  0.6514420813336801  0.706726583655837  0.15496097821638677  1.0000
  S   S11       1.0  0.5111267028635498  0.6193548314030521  0.585726747801466  1.0000
  S   S12       1.0  0.991392967691256  0.7588146205462433  0.9366104612020447  1.0000
data_image61
_chemical_formula_structural       Sn4P4S12
_chemical_formula_sum              "Sn4 P4 S12"
_cell_length_a       7.57141576
_cell_length_b       6.596566975487068
_cell_length_c       11.859499654632444
_cell_angle_alpha    56.10713322711195
_cell_angle_beta     90.0
_cell_angle_gamma    90.0

_space_group_name_H-M_alt    "P 1"
_space_group_IT_number       1

loop_
  _space_group_symop_operation_xyz
  'x, y, z'

loop_
  _atom_site_type_symbol
  _atom_site_label
  _atom_site_symmetry_multiplicity
  _atom_site_fract_x
  _atom_site_fract_y
  _atom_site_fract_z
  _atom_site_occupancy
  Sn  Sn1       1.0  0.8914092824616704  0.823871060111696  0.5081599326275975  1.0000
  Sn  Sn2       1.0  0.030948971601267417  0.05781753272760404  0.017590025394135428  1.0000
  Sn  Sn3       1.0  0.22036784959288808  0.37347105519967944  0.7734093416788033  1.0000
  Sn  Sn4       1.0  0.22570822724568235  0.274932970685057  0.3465654845493681  1.0000
  P   P1        1.0  0.3759638893403831  0.7932424542895535  0.4029790177886772  1.0000
  P   P2        1.0  0.24927692937626994  0.6526832020580345  0.8716606944487321  1.0000
  P   P3        1.0  0.8144766440796473  0.5396133252700424  0.2774374565509092  1.0000
  P   P4        1.0  0.5704213735635218  0.5806700536394531  0.9439616959332741  1.0000
  S   S1        1.0  0.7895051266466502  0.38030081759958123  0.49632623364500755  1.0000
  S   S2        1.0  0.9629048207818262  0.7911017344525886  0.26596718311228523  1.0000
  S   S3        1.0  0.9426963012972981  0.2136759910978887  0.2751604637277535  1.0000
  S   S4        1.0  0.6152347924871543  0.9329184817021838  0.39110511945262005  1.0000
  S   S5        1.0  0.6268759615038391  0.35695742474905756  0.8968917330232424  1.0000
  S   S6        1.0  0.3249922940933223  0.414683309227038  0.06284109149937667  1.0000
  S   S7        1.0  0.37060590922538866  0.9574896104722731  0.6726331970666546  1.0000
  S   S8        1.0  0.15128479741606027  0.16625763881969588  0.6281917292728334  1.0000
  S   S9        1.0  0.377813697635067  0.8167542025862263  0.1603432294763134  1.0000
  S   S10       1.0  0.646739258482514  0.7432629538011535  0.11889711748510168  1.0000
  S   S11       1.0  0.51387488514658  0.5395895180794956  0.5787213332330909  1.0000
  S   S12       1.0  0.003320174388865116  0.7474480342816474  0.9191733003138196  1.0000
data_image62
_chemical_formula_structural       Sn4P4S12
_chemical_formula_sum              "Sn4 P4 S12"
_cell_length_a       7.57141576
_cell_length_b       6.596566975487068
_cell_length_c       11.859499654632444
_cell_angle_alpha    56.10713322711195
_cell_angle_beta     90.0
_cell_angle_gamma    90.0

_space_group_name_H-M_alt    "P 1"
_space_group_IT_number       1

loop_
  _space_group_symop_operation_xyz
  'x, y, z'

loop_
  _atom_site_type_symbol
  _atom_site_label
  _atom_site_symmetry_multiplicity
  _atom_site_fract_x
  _atom_site_fract_y
  _atom_site_fract_z
  _atom_site_occupancy
  Sn  Sn1       1.0  0.8877811901246756  0.8919485214653745  0.4684872653155737  1.0000
  Sn  Sn2       1.0  0.9831288836015987  0.06755417922249851  0.009336795138957004  1.0000
  Sn  Sn3       1.0  0.2364124233135544  0.371895969805697  0.7897761667323159  1.0000
  Sn  Sn4       1.0  0.28849059517073083  0.2803713344349629  0.3679773881514406  1.0000
  P   P1        1.0  0.347757533368723  0.677679405259523  0.4530216856467829  1.0000
  P   P2        1.0  0.2559679131190107  0.6589997591935707  0.8929566069117241  1.0000
  P   P3        1.0  0.7978594812200775  0.5423532462593152  0.3100933106528402  1.0000
  P   P4        1.0  0.6037396273088685  0.5730009317373015  0.9282801104318501  1.0000
  S   S1        1.0  0.8032604553506593  0.3597522132948272  0.5148168607126742  1.0000
  S   S2        1.0  0.00567757140036651  0.7922926568703627  0.2713328025872701  1.0000
  S   S3        1.0  0.8833194510077759  0.3555096331599388  0.2287623153216655  1.0000
  S   S4        1.0  0.5307176939500915  0.06260512596023145  0.3544745089664151  1.0000
  S   S5        1.0  0.588074733875031  0.3650368950592493  0.8198797655817706  1.0000
  S   S6        1.0  0.36226902911343073  0.34876400395692386  0.09990875494364482  1.0000
  S   S7        1.0  0.4587640734625077  0.8808817356425488  0.7157246162596749  1.0000
  S   S8        1.0  0.18919144246317887  0.012739506033162007  0.6082024134273598  1.0000
  S   S9        1.0  0.4361216149781979  0.705608227141299  0.2241938966711019  1.0000
  S   S10       1.0  0.6031492494949517  0.8016723954051184  0.0831076573858065  1.0000
  S   S11       1.0  0.4006739316671956  0.3538908511210155  0.6164485985523076  1.0000
  S   S12       1.0  0.968457598360611  0.8288603503863903  0.8837316446529015  1.0000
data_image63
_chemical_formula_structural       Sn4P4S12
_chemical_formula_sum              "Sn4 P4 S12"
_cell_length_a       7.57141576
_cell_length_b       6.596566975487068
_cell_length_c       11.859499654632444
_cell_angle_alpha    56.10713322711195
_cell_angle_beta     90.0
_cell_angle_gamma    90.0

_space_group_name_H-M_alt    "P 1"
_space_group_IT_number       1

loop_
  _space_group_symop_operation_xyz
  'x, y, z'

loop_
  _atom_site_type_symbol
  _atom_site_label
  _atom_site_symmetry_multiplicity
  _atom_site_fract_x
  _atom_site_fract_y
  _atom_site_fract_z
  _atom_site_occupancy
  Sn  Sn1       1.0  0.9374777676158726  0.8660719698310925  0.48577917007570487  1.0000
  Sn  Sn2       1.0  0.96273330565074  0.11525491907761798  0.9899770824721762  1.0000
  Sn  Sn3       1.0  0.30332998320226745  0.32101613779440935  0.7795351715248563  1.0000
  Sn  Sn4       1.0  0.2744522541417815  0.30484638300952793  0.33856716927022135  1.0000
  P   P1        1.0  0.3527703123176708  0.7416450518153579  0.4156004120676534  1.0000
  P   P2        1.0  0.15186599817516505  0.6293214813777515  0.9134741249265476  1.0000
  P   P3        1.0  0.7706826731813309  0.6776558965228822  0.3055436321732135  1.0000
  P   P4        1.0  0.5240296465529897  0.5242828840847555  0.9042758612899117  1.0000
  S   S1        1.0  0.7759016367034786  0.5324523865240609  0.5075173986461126  1.0000
  S   S2        1.0  0.019235939006951197  0.8524017763481917  0.2849883303420263  1.0000
  S   S3        1.0  0.8326567639510307  0.380793350925674  0.291562066612458  1.0000
  S   S4        1.0  0.5566721421758877  0.027777402430016796  0.37447820303245116  1.0000
  S   S5        1.0  0.6516414620319472  0.34629465882462085  0.8320858749077975  1.0000
  S   S6        1.0  0.2571069288062904  0.30320634075582376  0.07837628420374254  1.0000
  S   S7        1.0  0.45483687149489904  0.846078780112825  0.7152608521206212  1.0000
  S   S8        1.0  0.17053310774901687  0.6911248824962115  0.7147275619709239  1.0000
  S   S9        1.0  0.48763776042153717  0.6883836019616975  0.2855463077930953  1.0000
  S   S10       1.0  0.645034334422808  0.9470737019896173  0.1022580315113466  1.0000
  S   S11       1.0  0.3640590899438847  0.33482250456285456  0.5436154182061077  1.0000
  S   S12       1.0  0.9089202084074024  0.8147140456289719  0.8918707603585417  1.0000
data_image64
_chemical_formula_structural       Sn4P4S12
_chemical_formula_sum              "Sn4 P4 S12"
_cell_length_a       7.57141576
_cell_length_b       6.596566975487068
_cell_length_c       11.859499654632444
_cell_angle_alpha    56.10713322711195
_cell_angle_beta     90.0
_cell_angle_gamma    90.0

_space_group_name_H-M_alt    "P 1"
_space_group_IT_number       1

loop_
  _space_group_symop_operation_xyz
  'x, y, z'

loop_
  _atom_site_type_symbol
  _atom_site_label
  _atom_site_symmetry_multiplicity
  _atom_site_fract_x
  _atom_site_fract_y
  _atom_site_fract_z
  _atom_site_occupancy
  Sn  Sn1       1.0  0.9231351416848413  0.9075722567462755  0.4945295977599409  1.0000
  Sn  Sn2       1.0  0.9715554868733927  0.17486426032717794  0.9660644555560751  1.0000
  Sn  Sn3       1.0  0.3326804532334611  0.1359217105758385  0.8103379819636203  1.0000
  Sn  Sn4       1.0  0.19537299050183907  0.32062599680580645  0.32271251036638493  1.0000
  P   P1        1.0  0.3457479438957626  0.7121958077190786  0.4185378061655976  1.0000
  P   P2        1.0  0.1627173173176061  0.7337476649773074  0.9198605569986896  1.0000
  P   P3        1.0  0.8662897732171755  0.6698853947888244  0.2963519602246019  1.0000
  P   P4        1.0  0.6186438697730582  0.5442324274815791  0.8920020323435532  1.0000
  S   S1        1.0  0.7963407287693274  0.5333458323256854  0.48968366320498136  1.0000
  S   S2        1.0  0.11813189542920455  0.8911901960412373  0.2576011663289218  1.0000
  S   S3        1.0  0.8694418987184593  0.4343806142649185  0.24156511843699302  1.0000
  S   S4        1.0  0.4993367176243063  0.004665574266341368  0.3761065246335063  1.0000
  S   S5        1.0  0.7149108731346814  0.38503040846377157  0.7894320554539823  1.0000
  S   S6        1.0  0.1858738086544518  0.37045832141122614  0.0796106910236003  1.0000
  S   S7        1.0  0.5698524728841386  0.9147034795090424  0.7683587748104984  1.0000
  S   S8        1.0  0.05927999131969397  0.5683529310387269  0.7734771425086773  1.0000
  S   S9        1.0  0.4393017573955229  0.6427410467278187  0.27875186452192535  1.0000
  S   S10       1.0  0.7345505958951484  0.9796246293702056  0.14534351076048813  1.0000
  S   S11       1.0  0.24255808645426571  0.3279422543582833  0.5596194417428129  1.0000
  S   S12       1.0  0.9087425609776326  0.8838398486025437  0.8759683443046816  1.0000
data_image65
_chemical_formula_structural       Sn4P4S12
_chemical_formula_sum              "Sn4 P4 S12"
_cell_length_a       7.57141576
_cell_length_b       6.596566975487068
_cell_length_c       11.859499654632444
_cell_angle_alpha    56.10713322711195
_cell_angle_beta     90.0
_cell_angle_gamma    90.0

_space_group_name_H-M_alt    "P 1"
_space_group_IT_number       1

loop_
  _space_group_symop_operation_xyz
  'x, y, z'

loop_
  _atom_site_type_symbol
  _atom_site_label
  _atom_site_symmetry_multiplicity
  _atom_site_fract_x
  _atom_site_fract_y
  _atom_site_fract_z
  _atom_site_occupancy
  Sn  Sn1       1.0  0.9261159645419814  0.9086342876962875  0.5311560383164613  1.0000
  Sn  Sn2       1.0  0.9471467231706585  0.18598714158805318  0.9581696166186887  1.0000
  Sn  Sn3       1.0  0.3943747587945795  0.02906468613939885  0.8951297978055005  1.0000
  Sn  Sn4       1.0  0.16481203985277917  0.25873725426014  0.33107890728540706  1.0000
  P   P1        1.0  0.35308407050284646  0.5609701134447758  0.42785987581829943  1.0000
  P   P2        1.0  0.13737955967655702  0.7594396053801754  0.845602429712568  1.0000
  P   P3        1.0  0.8573329775308695  0.7823977736864145  0.2629571897534708  1.0000
  P   P4        1.0  0.6458224621187025  0.645474128057508  0.8193449857367071  1.0000
  S   S1        1.0  0.8045196039891466  0.6386938751253233  0.45005746032310956  1.0000
  S   S2        1.0  0.11812432517569893  0.8813600037934979  0.21784712392501326  1.0000
  S   S3        1.0  0.8593988474849006  0.5085382537603593  0.22461548009371604  1.0000
  S   S4        1.0  0.419344273133584  0.908103827857442  0.3996839421038229  1.0000
  S   S5        1.0  0.6124062475103328  0.5604572689217662  0.6920455210842636  1.0000
  S   S6        1.0  0.2061570398673529  0.47263999814646984  0.04710325035494911  1.0000
  S   S7        1.0  0.5973732425880807  0.0010313067085874858  0.7094966668752342  1.0000
  S   S8        1.0  0.2013946603790493  0.6525743775192486  0.7123636064393544  1.0000
  S   S9        1.0  0.46469445184792924  0.4350889026010044  0.3034709101730009  1.0000
  S   S10       1.0  0.682837945848227  0.10703426118134869  0.12045394245547492  1.0000
  S   S11       1.0  0.2373595817366948  0.35247136502034704  0.6078979623395292  1.0000
  S   S12       1.0  0.8988406139028503  0.9121145008074626  0.8642548425538424  1.0000
data_image66
_chemical_formula_structural       Sn4P4S12
_chemical_formula_sum              "Sn4 P4 S12"
_cell_length_a       7.57141576
_cell_length_b       6.596566975487068
_cell_length_c       11.859499654632444
_cell_angle_alpha    56.10713322711195
_cell_angle_beta     90.0
_cell_angle_gamma    90.0

_space_group_name_H-M_alt    "P 1"
_space_group_IT_number       1

loop_
  _space_group_symop_operation_xyz
  'x, y, z'

loop_
  _atom_site_type_symbol
  _atom_site_label
  _atom_site_symmetry_multiplicity
  _atom_site_fract_x
  _atom_site_fract_y
  _atom_site_fract_z
  _atom_site_occupancy
  Sn  Sn1       1.0  0.9102682349775142  0.9023358451018827  0.5347171157911754  1.0000
  Sn  Sn2       1.0  0.919127843916495  0.2453691655553294  0.9638601154333724  1.0000
  Sn  Sn3       1.0  0.43906992717851234  0.051081019948860704  0.9145511317450292  1.0000
  Sn  Sn4       1.0  0.18768272398543653  0.26458676550938015  0.28568585015384623  1.0000
  P   P1        1.0  0.30538192462046926  0.5036327564731335  0.41901137381495157  1.0000
  P   P2        1.0  0.1830721540982778  0.7576017941432188  0.8414080736750532  1.0000
  P   P3        1.0  0.8631114579980856  0.7696923209745099  0.2462157763436786  1.0000
  P   P4        1.0  0.6303403984598774  0.7854541714066309  0.7667308378457116  1.0000
  S   S1        1.0  0.8661159210730323  0.557888808323107  0.4759940181433751  1.0000
  S   S2        1.0  0.1143465396931942  0.9117740467815018  0.180781136922375  1.0000
  S   S3        1.0  0.7628438861339512  0.6270005840810862  0.16169328462344443  1.0000
  S   S4        1.0  0.3726771648253289  0.7926732873968168  0.4141180522361318  1.0000
  S   S5        1.0  0.6363100670724007  0.5391616191941606  0.7283164977933686  1.0000
  S   S6        1.0  0.17177599014277556  0.42483712631625725  0.017837454453595525  1.0000
  S   S7        1.0  0.5822599711014831  0.12620364136156392  0.7185035092912851  1.0000
  S   S8        1.0  0.20054404572318996  0.727327194188643  0.6735595158887917  1.0000
  S   S9        1.0  0.519798890926666  0.2975508500093919  0.38838633565845915  1.0000
  S   S10       1.0  0.6538953014172237  0.9817282700619661  0.2397019128684379  1.0000
  S   S11       1.0  0.2756937938693282  0.30870013061550616  0.6386579511135753  1.0000
  S   S12       1.0  0.8715522705674746  0.7693843524744409  0.8484591561309752  1.0000
data_image67
_chemical_formula_structural       Sn4P4S12
_chemical_formula_sum              "Sn4 P4 S12"
_cell_length_a       7.57141576
_cell_length_b       6.596566975487068
_cell_length_c       11.859499654632444
_cell_angle_alpha    56.10713322711195
_cell_angle_beta     90.0
_cell_angle_gamma    90.0

_space_group_name_H-M_alt    "P 1"
_space_group_IT_number       1

loop_
  _space_group_symop_operation_xyz
  'x, y, z'

loop_
  _atom_site_type_symbol
  _atom_site_label
  _atom_site_symmetry_multiplicity
  _atom_site_fract_x
  _atom_site_fract_y
  _atom_site_fract_z
  _atom_site_occupancy
  Sn  Sn1       1.0  0.8792848651381173  0.9044568085170317  0.5667327431918977  1.0000
  Sn  Sn2       1.0  0.8806460054296484  0.18846869835370095  0.9784006915717824  1.0000
  Sn  Sn3       1.0  0.44615058187431156  0.05822016755556454  0.9548975718460553  1.0000
  Sn  Sn4       1.0  0.19675965020380332  0.22807116834253868  0.2631330994721724  1.0000
  P   P1        1.0  0.3475222881449034  0.525726743224055  0.4184276814301424  1.0000
  P   P2        1.0  0.1420237150965576  0.795462348983083  0.8363377635465509  1.0000
  P   P3        1.0  0.8347785441234101  0.7466403025620595  0.2879980289799286  1.0000
  P   P4        1.0  0.5949822276708336  0.7865431265529073  0.7790168864309193  1.0000
  S   S1        1.0  0.9278583536623057  0.5254810825943721  0.46846179467585986  1.0000
  S   S2        1.0  0.07321662542861862  0.9325626967311555  0.17541606814673744  1.0000
  S   S3        1.0  0.7254514140855017  0.6885132266194516  0.13089229330648083  1.0000
  S   S4        1.0  0.41805819901721797  0.8287713285819662  0.38590988447822266  1.0000
  S   S5        1.0  0.6715050494729546  0.555955556013938  0.7123509365819822  1.0000
  S   S6        1.0  0.37607367175323736  0.4746616775018996  0.9805894026644714  1.0000
  S   S7        1.0  0.585747934598979  0.13329747583999638  0.6039091660985271  1.0000
  S   S8        1.0  0.2007343155156498  0.7056846759758116  0.7028018742448552  1.0000
  S   S9        1.0  0.46487814324835086  0.40169455067827325  0.31538414779983004  1.0000
  S   S10       1.0  0.6771613553879068  0.048093106829166635  0.20662438912032832  1.0000
  S   S11       1.0  0.3109683824860884  0.24495025846572616  0.647872555772782  1.0000
  S   S12       1.0  0.8548439637889689  0.8002115448530689  0.8693520809911873  1.0000
data_image68
_chemical_formula_structural       Sn4P4S12
_chemical_formula_sum              "Sn4 P4 S12"
_cell_length_a       7.57141576
_cell_length_b       6.596566975487068
_cell_length_c       11.859499654632444
_cell_angle_alpha    56.10713322711195
_cell_angle_beta     90.0
_cell_angle_gamma    90.0

_space_group_name_H-M_alt    "P 1"
_space_group_IT_number       1

loop_
  _space_group_symop_operation_xyz
  'x, y, z'

loop_
  _atom_site_type_symbol
  _atom_site_label
  _atom_site_symmetry_multiplicity
  _atom_site_fract_x
  _atom_site_fract_y
  _atom_site_fract_z
  _atom_site_occupancy
  Sn  Sn1       1.0  0.8691934967339845  0.8905742168722227  0.5832407362084061  1.0000
  Sn  Sn2       1.0  0.9297502368395462  0.19932978336357143  0.9466243636539263  1.0000
  Sn  Sn3       1.0  0.47963066245495806  0.04116551064592857  0.9934882803097014  1.0000
  Sn  Sn4       1.0  0.17542997499668522  0.19748570348874303  0.2458362782774311  1.0000
  P   P1        1.0  0.2817558892643748  0.654372145594998  0.36507369007239193  1.0000
  P   P2        1.0  0.17289675864080167  0.7808345228387964  0.8351902615526177  1.0000
  P   P3        1.0  0.8166913994585157  0.8376247780345741  0.24271600822932207  1.0000
  P   P4        1.0  0.5643562325465328  0.7328751765957084  0.8425955860780865  1.0000
  S   S1        1.0  0.8408301586512472  0.6037469112939677  0.44457190203221936  1.0000
  S   S2        1.0  0.1294619101549448  0.8059385981094109  0.19259360847347476  1.0000
  S   S3        1.0  0.7594948969176754  0.6536826464692425  0.1552671648009393  1.0000
  S   S4        1.0  0.41678832980796604  0.887695469316483  0.38648773355819144  1.0000
  S   S5        1.0  0.6407193359923546  0.5216123279848544  0.7387879152447456  1.0000
  S   S6        1.0  0.3594047682896677  0.5089513101915828  0.9977054959724746  1.0000
  S   S7        1.0  0.5297498472417301  0.046576145087850844  0.6426269786574247  1.0000
  S   S8        1.0  0.11957867315874204  0.5851717212710797  0.7387675878632974  1.0000
  S   S9        1.0  0.4589377867024642  0.49001179483332435  0.29034753598506313  1.0000
  S   S10       1.0  0.670697430363874  0.1861186278156889  0.13408131122606282  1.0000
  S   S11       1.0  0.3314118472268976  0.29439524406317474  0.6056313009638064  1.0000
  S   S12       1.0  0.9229243974511018  0.7951569875459705  0.8843858745371118  1.0000
data_image69
_chemical_formula_structural       Sn4P4S12
_chemical_formula_sum              "Sn4 P4 S12"
_cell_length_a       7.57141576
_cell_length_b       6.596566975487068
_cell_length_c       11.859499654632444
_cell_angle_alpha    56.10713322711195
_cell_angle_beta     90.0
_cell_angle_gamma    90.0

_space_group_name_H-M_alt    "P 1"
_space_group_IT_number       1

loop_
  _space_group_symop_operation_xyz
  'x, y, z'

loop_
  _atom_site_type_symbol
  _atom_site_label
  _atom_site_symmetry_multiplicity
  _atom_site_fract_x
  _atom_site_fract_y
  _atom_site_fract_z
  _atom_site_occupancy
  Sn  Sn1       1.0  0.9018051123720267  0.8140858071091733  0.5974026297313315  1.0000
  Sn  Sn2       1.0  0.96856778746109  0.21398095154645436  0.9147939664328716  1.0000
  Sn  Sn3       1.0  0.4929359181285321  0.9499504280566433  0.054979820215334686  1.0000
  Sn  Sn4       1.0  0.17903192089937162  0.24408931042766974  0.20909198667757184  1.0000
  P   P1        1.0  0.2619786735842884  0.5936588049337339  0.36068335370572874  1.0000
  P   P2        1.0  0.21127064140990826  0.8116465618239351  0.8175923758416175  1.0000
  P   P3        1.0  0.8166706589643276  0.8671111187366838  0.27028709330951495  1.0000
  P   P4        1.0  0.47522033313227835  0.8727136989698943  0.8100579054398952  1.0000
  S   S1        1.0  0.7716771853671563  0.6598986395596558  0.47000926852631136  1.0000
  S   S2        1.0  0.0839359229068164  0.8082519311772948  0.18517063239214293  1.0000
  S   S3        1.0  0.7915188870978954  0.6208875087668861  0.21808171697415643  1.0000
  S   S4        1.0  0.4098002583566453  0.8380098190415415  0.38021009423767305  1.0000
  S   S5        1.0  0.6517982587388806  0.5612266744796839  0.7912878266747989  1.0000
  S   S6        1.0  0.3646194238624998  0.4999999374668822  0.9849910654847792  1.0000
  S   S7        1.0  0.42613198495584836  0.1426188469234934  0.6130578347315674  1.0000
  S   S8        1.0  0.18441438402837496  0.6615105823302325  0.7024871100105711  1.0000
  S   S9        1.0  0.43221424504212114  0.4278342898259873  0.30024645512576265  1.0000
  S   S10       1.0  0.7188908958214104  0.177781267445557  0.16509132326452103  1.0000
  S   S11       1.0  0.15290477963727905  0.32906459514852027  0.5289282622883416  1.0000
  S   S12       1.0  0.9329845247226379  0.9055972458839369  0.874292773883071  1.0000
data_image70
_chemical_formula_structural       Sn4P4S12
_chemical_formula_sum              "Sn4 P4 S12"
_cell_length_a       7.57141576
_cell_length_b       6.596566975487068
_cell_length_c       11.859499654632444
_cell_angle_alpha    56.10713322711195
_cell_angle_beta     90.0
_cell_angle_gamma    90.0

_space_group_name_H-M_alt    "P 1"
_space_group_IT_number       1

loop_
  _space_group_symop_operation_xyz
  'x, y, z'

loop_
  _atom_site_type_symbol
  _atom_site_label
  _atom_site_symmetry_multiplicity
  _atom_site_fract_x
  _atom_site_fract_y
  _atom_site_fract_z
  _atom_site_occupancy
  Sn  Sn1       1.0  0.8070880829052999  0.7610062658262599  0.6482215389632969  1.0000
  Sn  Sn2       1.0  0.002663377748090001  0.20103854451509195  0.9140939123931644  1.0000
  Sn  Sn3       1.0  0.48676150470397694  0.9303810057868677  0.05396453377554398  1.0000
  Sn  Sn4       1.0  0.20455620298153146  0.24175229411035198  0.2080158793098486  1.0000
  P   P1        1.0  0.329234989333584  0.5852223088693587  0.4248513933653987  1.0000
  P   P2        1.0  0.2268048317954076  0.7640421041763743  0.8226259688859171  1.0000
  P   P3        1.0  0.8737059973844025  0.8266713192151219  0.28135484489995316  1.0000
  P   P4        1.0  0.41905121863332484  0.9819895821938396  0.7662482238912429  1.0000
  S   S1        1.0  0.8763323926127542  0.5616976784730789  0.4655267335025588  1.0000
  S   S2        1.0  0.09547655920622633  0.9943266591599192  0.1416552765600288  1.0000
  S   S3        1.0  0.8497615777605818  0.5824112789173939  0.22334552619373935  1.0000
  S   S4        1.0  0.4277664554100983  0.890086056227655  0.3839313408160048  1.0000
  S   S5        1.0  0.5405286601679604  0.7099798706237697  0.7893294356004501  1.0000
  S   S6        1.0  0.3512682110784453  0.45865753914869845  0.9931438959045593  1.0000
  S   S7        1.0  0.4319075259956446  0.23999153686924296  0.5424107997312485  1.0000
  S   S8        1.0  0.14737627722049673  0.6205282088255768  0.7090695401703074  1.0000
  S   S9        1.0  0.44148845639671297  0.5174369899823198  0.26357676447115175  1.0000
  S   S10       1.0  0.7156551385727439  0.1052393447226098  0.22619824569188363  1.0000
  S   S11       1.0  0.12061707041454295  0.2954058427664701  0.5087654249880054  1.0000
  S   S12       1.0  0.9941728555148197  0.9672684561917342  0.7522308181692927  1.0000
data_image71
_chemical_formula_structural       Sn4P4S12
_chemical_formula_sum              "Sn4 P4 S12"
_cell_length_a       7.57141576
_cell_length_b       6.596566975487068
_cell_length_c       11.859499654632444
_cell_angle_alpha    56.10713322711195
_cell_angle_beta     90.0
_cell_angle_gamma    90.0

_space_group_name_H-M_alt    "P 1"
_space_group_IT_number       1

loop_
  _space_group_symop_operation_xyz
  'x, y, z'

loop_
  _atom_site_type_symbol
  _atom_site_label
  _atom_site_symmetry_multiplicity
  _atom_site_fract_x
  _atom_site_fract_y
  _atom_site_fract_z
  _atom_site_occupancy
  Sn  Sn1       1.0  0.7900616794732439  0.8488650049684346  0.6131670284609206  1.0000
  Sn  Sn2       1.0  0.972103075109777  0.18617994107762348  0.904233284755877  1.0000
  Sn  Sn3       1.0  0.539966212373683  0.9591504987615337  0.0085814167165847  1.0000
  Sn  Sn4       1.0  0.18982487968409065  0.20847329422103575  0.276232699038393  1.0000
  P   P1        1.0  0.33427190603648255  0.5211043990163187  0.4891635621188216  1.0000
  P   P2        1.0  0.24179050351468248  0.6696357231537042  0.8185928826751954  1.0000
  P   P3        1.0  0.8641665167661657  0.7075724491696851  0.3026028986134874  1.0000
  P   P4        1.0  0.4245529594012957  0.10312118095572366  0.7038787332973031  1.0000
  S   S1        1.0  0.8606474974662749  0.5729799254956767  0.5096097826956144  1.0000
  S   S2        1.0  0.07117068657205183  0.9213889554828663  0.18854580829130788  1.0000
  S   S3        1.0  0.7940812846365394  0.5630467337388116  0.18801868858003976  1.0000
  S   S4        1.0  0.5413977774072568  0.0028731789647163945  0.4009192726220557  1.0000
  S   S5        1.0  0.5161126075613427  0.7224198741996477  0.7909223890917024  1.0000
  S   S6        1.0  0.2644791160363351  0.38711528963403263  0.020411852884574477  1.0000
  S   S7        1.0  0.5168476909004618  0.24966671516359012  0.5031213559498952  1.0000
  S   S8        1.0  0.20220398391106076  0.5268991557180941  0.7044848815621935  1.0000
  S   S9        1.0  0.3993175340621802  0.6386794485246847  0.1982982975487051  1.0000
  S   S10       1.0  0.7383876099786146  0.046717686062049686  0.24324293785504159  1.0000
  S   S11       1.0  0.10055911080515155  0.3735326722465595  0.4848313591407343  1.0000
  S   S12       1.0  0.003862657101404432  0.8334429341680462  0.8311373967149964  1.0000
data_image72
_chemical_formula_structural       Sn4P4S12
_chemical_formula_sum              "Sn4 P4 S12"
_cell_length_a       7.57141576
_cell_length_b       6.596566975487068
_cell_length_c       11.859499654632444
_cell_angle_alpha    56.10713322711195
_cell_angle_beta     90.0
_cell_angle_gamma    90.0

_space_group_name_H-M_alt    "P 1"
_space_group_IT_number       1

loop_
  _space_group_symop_operation_xyz
  'x, y, z'

loop_
  _atom_site_type_symbol
  _atom_site_label
  _atom_site_symmetry_multiplicity
  _atom_site_fract_x
  _atom_site_fract_y
  _atom_site_fract_z
  _atom_site_occupancy
  Sn  Sn1       1.0  0.8105288913115708  0.9176461409825362  0.5839767180312713  1.0000
  Sn  Sn2       1.0  0.953649675671546  0.20183424037684095  0.9402809268538939  1.0000
  Sn  Sn3       1.0  0.5149316027662325  0.9931518147076674  0.9773575868582615  1.0000
  Sn  Sn4       1.0  0.1568591344008795  0.1622094553713862  0.3089389721203603  1.0000
  P   P1        1.0  0.397582725684072  0.5892996266219539  0.4896287661859575  1.0000
  P   P2        1.0  0.2531330670696817  0.6612405521559853  0.787022847735319  1.0000
  P   P3        1.0  0.8066939209935741  0.7654018411926252  0.29196435547419264  1.0000
  P   P4        1.0  0.45911701986837405  0.9690588677309965  0.7004080679021127  1.0000
  S   S1        1.0  0.9123366639207674  0.5860319522358282  0.49441141361773866  1.0000
  S   S2        1.0  0.08355912978919844  0.8532092185347563  0.20499108518852843  1.0000
  S   S3        1.0  0.7652774395007377  0.5988103103058882  0.17935186421482505  1.0000
  S   S4        1.0  0.5001771544235677  0.9005942159534689  0.45304147990161336  1.0000
  S   S5        1.0  0.6212034786734648  0.6749973112992269  0.8001890050781039  1.0000
  S   S6        1.0  0.27819406651640555  0.3198980367577031  0.9646487775830938  1.0000
  S   S7        1.0  0.6289299279235575  0.2930497853584737  0.6067046551262885  1.0000
  S   S8        1.0  0.25646252077343634  0.5959248066509641  0.6409371809214193  1.0000
  S   S9        1.0  0.28597359585497784  0.6806483851445452  0.16477554241334746  1.0000
  S   S10       1.0  0.6806387137772145  0.05994946284819852  0.24749971517819946  1.0000
  S   S11       1.0  0.11012433392854752  0.20413101035685655  0.48151679251340485  1.0000
  S   S12       1.0  0.04519483275415981  0.8201179448520404  0.8386887993430628  1.0000
data_image73
_chemical_formula_structural       Sn4P4S12
_chemical_formula_sum              "Sn4 P4 S12"
_cell_length_a       7.57141576
_cell_length_b       6.596566975487068
_cell_length_c       11.859499654632444
_cell_angle_alpha    56.10713322711195
_cell_angle_beta     90.0
_cell_angle_gamma    90.0

_space_group_name_H-M_alt    "P 1"
_space_group_IT_number       1

loop_
  _space_group_symop_operation_xyz
  'x, y, z'

loop_
  _atom_site_type_symbol
  _atom_site_label
  _atom_site_symmetry_multiplicity
  _atom_site_fract_x
  _atom_site_fract_y
  _atom_site_fract_z
  _atom_site_occupancy
  Sn  Sn1       1.0  0.818008921371992  0.9205026868539802  0.575433219810934  1.0000
  Sn  Sn2       1.0  0.94675584883669  0.2708083696517052  0.9485120214561529  1.0000
  Sn  Sn3       1.0  0.5058172358667706  0.9949301967477056  0.9479406323481594  1.0000
  Sn  Sn4       1.0  0.19899441450634595  0.16985983998838713  0.31239812985834037  1.0000
  P   P1        1.0  0.46615290646040786  0.48922381484859745  0.5319515908944853  1.0000
  P   P2        1.0  0.2749852527943039  0.6809111731530761  0.7705812444244478  1.0000
  P   P3        1.0  0.8254154794174535  0.7709167725145695  0.24472845895082862  1.0000
  P   P4        1.0  0.5115169785741427  0.876605475050153  0.7466758750018104  1.0000
  S   S1        1.0  0.8665747385004735  0.653605759111453  0.44604193120597607  1.0000
  S   S2        1.0  0.1513103815003245  0.8631828238130185  0.21785731807917394  1.0000
  S   S3        1.0  0.6382285183715877  0.6115377460739413  0.15231594324858325  1.0000
  S   S4        1.0  0.4202183407427996  0.8087557078843589  0.5043689648098795  1.0000
  S   S5        1.0  0.6872795861156284  0.6750306182966496  0.8806089511438877  1.0000
  S   S6        1.0  0.2673124065374517  0.349737047411079  0.9815617242872529  1.0000
  S   S7        1.0  0.636426925127753  0.26784628124894244  0.6983841175944685  1.0000
  S   S8        1.0  0.2228435941456013  0.5346058173810448  0.6620277758341642  1.0000
  S   S9        1.0  0.2132290323388928  0.6768409239736424  0.11555242180541403  1.0000
  S   S10       1.0  0.6702786319980056  0.06043764161924875  0.15272180976107985  1.0000
  S   S11       1.0  0.065431305005942  0.20394790275535413  0.5052632994641574  1.0000
  S   S12       1.0  0.05169541150426005  0.74083409794551  0.8325840653359705  1.0000
data_image74
_chemical_formula_structural       Sn4P4S12
_chemical_formula_sum              "Sn4 P4 S12"
_cell_length_a       7.57141576
_cell_length_b       6.596566975487068
_cell_length_c       11.859499654632444
_cell_angle_alpha    56.10713322711195
_cell_angle_beta     90.0
_cell_angle_gamma    90.0

_space_group_name_H-M_alt    "P 1"
_space_group_IT_number       1

loop_
  _space_group_symop_operation_xyz
  'x, y, z'

loop_
  _atom_site_type_symbol
  _atom_site_label
  _atom_site_symmetry_multiplicity
  _atom_site_fract_x
  _atom_site_fract_y
  _atom_site_fract_z
  _atom_site_occupancy
  Sn  Sn1       1.0  0.8557923646215431  0.9016250883236046  0.5627907536988407  1.0000
  Sn  Sn2       1.0  0.9954827000473989  0.2697214269256831  0.9181845101046464  1.0000
  Sn  Sn3       1.0  0.4500947376681816  0.0023422775059255387  0.9279732479409757  1.0000
  Sn  Sn4       1.0  0.16055513787986234  0.26705264417064556  0.2924325431987707  1.0000
  P   P1        1.0  0.5934985140580146  0.5166308622737907  0.5850792341976718  1.0000
  P   P2        1.0  0.25322933034951856  0.6906738848881494  0.7883944217120943  1.0000
  P   P3        1.0  0.8167269802138398  0.7711376709776709  0.21773533364163944  1.0000
  P   P4        1.0  0.49839316234423964  0.8507918303350841  0.7429050610497472  1.0000
  S   S1        1.0  0.7445554588828686  0.5193274215770789  0.44997555475313256  1.0000
  S   S2        1.0  0.15117603796734125  0.7114362992904496  0.2808755227733798  1.0000
  S   S3        1.0  0.7069726686374384  0.46520494851686167  0.2596528457034992  1.0000
  S   S4        1.0  0.40911425338051394  0.7884144132656523  0.48313077892476664  1.0000
  S   S5        1.0  0.5804525619092781  0.5624440981509915  0.954653736125208  1.0000
  S   S6        1.0  0.38144214306826685  0.3476343722085291  0.006096408909214812  1.0000
  S   S7        1.0  0.7867793099755499  0.3330471099632324  0.7283058529725503  1.0000
  S   S8        1.0  0.19125789672143934  0.46291078914319317  0.7457238226036501  1.0000
  S   S9        1.0  0.13649792072919587  0.7907788494599128  0.06547597328232913  1.0000
  S   S10       1.0  0.6642968700975496  0.07396770233032994  0.130671622833596  1.0000
  S   S11       1.0  0.052596249524971495  0.22811073631961598  0.5174057252385644  1.0000
  S   S12       1.0  0.0339167588368412  0.8338228283776145  0.797151790046471  1.0000
data_image75
_chemical_formula_structural       Sn4P4S12
_chemical_formula_sum              "Sn4 P4 S12"
_cell_length_a       7.57141576
_cell_length_b       6.596566975487068
_cell_length_c       11.859499654632444
_cell_angle_alpha    56.10713322711195
_cell_angle_beta     90.0
_cell_angle_gamma    90.0

_space_group_name_H-M_alt    "P 1"
_space_group_IT_number       1

loop_
  _space_group_symop_operation_xyz
  'x, y, z'

loop_
  _atom_site_type_symbol
  _atom_site_label
  _atom_site_symmetry_multiplicity
  _atom_site_fract_x
  _atom_site_fract_y
  _atom_site_fract_z
  _atom_site_occupancy
  Sn  Sn1       1.0  0.9157796356267431  0.9207751171109895  0.546000168926689  1.0000
  Sn  Sn2       1.0  0.9804864070960023  0.19980329685561138  0.9535089304287865  1.0000
  Sn  Sn3       1.0  0.44874727629500905  0.0715036277460348  0.9058237130114508  1.0000
  Sn  Sn4       1.0  0.11596359457816956  0.23816397076269827  0.27158713150006086  1.0000
  P   P1        1.0  0.6480200699967158  0.6633147758017581  0.5404260868648444  1.0000
  P   P2        1.0  0.24139960590724777  0.689143711039273  0.7955015391405295  1.0000
  P   P3        1.0  0.7566886174548897  0.5919219323880286  0.28990014797065317  1.0000
  P   P4        1.0  0.5094266870781027  0.9403742126374295  0.7201174664242874  1.0000
  S   S1        1.0  0.8280989580809641  0.377269346174369  0.49815353918462696  1.0000
  S   S2        1.0  0.03823480095638754  0.7980556931206273  0.22963783998373447  1.0000
  S   S3        1.0  0.6430208153296597  0.3439596664655127  0.2791186968974922  1.0000
  S   S4        1.0  0.39452100592347983  0.8429008942929761  0.5245035882165597  1.0000
  S   S5        1.0  0.6170834018108265  0.5965196623336515  0.9131557438555026  1.0000
  S   S6        1.0  0.3831287561167631  0.4829958359024418  0.03765819816921123  1.0000
  S   S7        1.0  0.6437530688509874  0.3620934064606533  0.7389550472667217  1.0000
  S   S8        1.0  0.2804431495745985  0.5294024968998987  0.6958533002437557  1.0000
  S   S9        1.0  0.16472357263009507  0.7836091804256379  0.0684345278529066  1.0000
  S   S10       1.0  0.637964863764747  0.9782383623594605  0.15574112824727626  1.0000
  S   S11       1.0  0.1990446918418392  0.1545751278768399  0.5548347498940472  1.0000
  S   S12       1.0  0.014582577422972642  0.8621137843420246  0.8007538259075716  1.0000
data_image76
_chemical_formula_structural       Sn4P4S12
_chemical_formula_sum              "Sn4 P4 S12"
_cell_length_a       7.57141576
_cell_length_b       6.596566975487068
_cell_length_c       11.859499654632444
_cell_angle_alpha    56.10713322711195
_cell_angle_beta     90.0
_cell_angle_gamma    90.0

_space_group_name_H-M_alt    "P 1"
_space_group_IT_number       1

loop_
  _space_group_symop_operation_xyz
  'x, y, z'

loop_
  _atom_site_type_symbol
  _atom_site_label
  _atom_site_symmetry_multiplicity
  _atom_site_fract_x
  _atom_site_fract_y
  _atom_site_fract_z
  _atom_site_occupancy
  Sn  Sn1       1.0  0.9633151471074597  0.9505844568885227  0.5516155631971515  1.0000
  Sn  Sn2       1.0  0.028807787939737484  0.22636998101817518  0.9647267791753208  1.0000
  Sn  Sn3       1.0  0.499414742342081  0.10781240925012955  0.8732094335378225  1.0000
  Sn  Sn4       1.0  0.10868257420002934  0.17774058148596655  0.26448354359365434  1.0000
  P   P1        1.0  0.5262465125868783  0.6676394298131442  0.4608048196813678  1.0000
  P   P2        1.0  0.290704966819179  0.6337902430207488  0.8205759139422449  1.0000
  P   P3        1.0  0.6891505454563824  0.5841252980281745  0.30344424646722074  1.0000
  P   P4        1.0  0.40163923038102606  0.969373242021132  0.6835849230014557  1.0000
  S   S1        1.0  0.8008739033495444  0.4292386367967771  0.5229100104666409  1.0000
  S   S2        1.0  0.9171905097631258  0.8328152859782153  0.28164008743433927  1.0000
  S   S3        1.0  0.7327963805331321  0.2938611237684403  0.28950053912755247  1.0000
  S   S4        1.0  0.47747882764504446  0.00799160160779233  0.3977497527575653  1.0000
  S   S5        1.0  0.57963104912393  0.5386081983289546  0.9336880373975823  1.0000
  S   S6        1.0  0.31668068668136384  0.5016167443106042  0.03997380580309673  1.0000
  S   S7        1.0  0.68845726669177  0.5746485484966314  0.6437150831979208  1.0000
  S   S8        1.0  0.23741249185208013  0.40397290551854137  0.753662957637975  1.0000
  S   S9        1.0  0.09637804592079546  0.6293536649719768  0.24915561638893613  1.0000
  S   S10       1.0  0.5316951561302785  0.8458998760970736  0.16355430090442113  1.0000
  S   S11       1.0  0.19058062638710005  0.27114210444673037  0.5437854663837882  1.0000
  S   S12       1.0  0.0010566653263344161  0.6934277022532949  0.8367051631588462  1.0000
data_image77
_chemical_formula_structural       Sn4P4S12
_chemical_formula_sum              "Sn4 P4 S12"
_cell_length_a       7.57141576
_cell_length_b       6.596566975487068
_cell_length_c       11.859499654632444
_cell_angle_alpha    56.10713322711195
_cell_angle_beta     90.0
_cell_angle_gamma    90.0

_space_group_name_H-M_alt    "P 1"
_space_group_IT_number       1

loop_
  _space_group_symop_operation_xyz
  'x, y, z'

loop_
  _atom_site_type_symbol
  _atom_site_label
  _atom_site_symmetry_multiplicity
  _atom_site_fract_x
  _atom_site_fract_y
  _atom_site_fract_z
  _atom_site_occupancy
  Sn  Sn1       1.0  0.9198178494553859  0.9661556713267117  0.5595707871093122  1.0000
  Sn  Sn2       1.0  0.03963314106403626  0.20483807563128065  0.9853092132208834  1.0000
  Sn  Sn3       1.0  0.5724080911441933  0.11260340668631745  0.8691557227558372  1.0000
  Sn  Sn4       1.0  0.15364270670513352  0.1250090722384703  0.2705938487307927  1.0000
  P   P1        1.0  0.4149236048734754  0.7612640096433994  0.3636378220999088  1.0000
  P   P2        1.0  0.2567134466259969  0.6449175577979094  0.8270907192141977  1.0000
  P   P3        1.0  0.6931469490377303  0.5476426000283382  0.3338383694517915  1.0000
  P   P4        1.0  0.34952622315509785  0.9811496081323424  0.6379504430980989  1.0000
  S   S1        1.0  0.7448038875096068  0.31899288012284654  0.5781329408827105  1.0000
  S   S2        1.0  0.8604413810241438  0.8901067289429008  0.2366095499482554  1.0000
  S   S3        1.0  0.8202390969704334  0.3793638301371125  0.24823252229009246  1.0000
  S   S4        1.0  0.4645616664442418  0.059062807695357974  0.36752565423478484  1.0000
  S   S5        1.0  0.5423154109288486  0.4780709368946071  0.8966730000751332  1.0000
  S   S6        1.0  0.3502192938751858  0.487321087585707  0.02617574471338724  1.0000
  S   S7        1.0  0.7058549516680459  0.5823549576092756  0.6133404106240079  1.0000
  S   S8        1.0  0.2290972438830552  0.5144302493140036  0.6862603773677761  1.0000
  S   S9        1.0  0.11241277262334637  0.7135251149316421  0.3162962899803743  1.0000
  S   S10       1.0  0.49183446878750137  0.8514035544257001  0.1713870792923804  1.0000
  S   S11       1.0  0.16330235166626209  0.13799929610356942  0.6780653662450409  1.0000
  S   S12       1.0  0.9569558837006559  0.7349183095729168  0.8252601621720393  1.0000
data_image78
_chemical_formula_structural       Sn4P4S12
_chemical_formula_sum              "Sn4 P4 S12"
_cell_length_a       7.57141576
_cell_length_b       6.596566975487068
_cell_length_c       11.859499654632444
_cell_angle_alpha    56.10713322711195
_cell_angle_beta     90.0
_cell_angle_gamma    90.0

_space_group_name_H-M_alt    "P 1"
_space_group_IT_number       1

loop_
  _space_group_symop_operation_xyz
  'x, y, z'

loop_
  _atom_site_type_symbol
  _atom_site_label
  _atom_site_symmetry_multiplicity
  _atom_site_fract_x
  _atom_site_fract_y
  _atom_site_fract_z
  _atom_site_occupancy
  Sn  Sn1       1.0  0.8976053162368299  0.9765244596517851  0.5433091380825623  1.0000
  Sn  Sn2       1.0  0.9721713943517987  0.16395114497899388  0.9707652069168606  1.0000
  Sn  Sn3       1.0  0.6043322002513891  0.028582657592497604  0.8954139781564123  1.0000
  Sn  Sn4       1.0  0.14423300193490143  0.1934645834839123  0.2547496294872271  1.0000
  P   P1        1.0  0.3789281386461199  0.7356608650718861  0.38702814979431294  1.0000
  P   P2        1.0  0.2957690697490615  0.5602108871681883  0.844576718583258  1.0000
  P   P3        1.0  0.7167405648588041  0.6166765859851356  0.3168732355628202  1.0000
  P   P4        1.0  0.34773230928135257  0.9194004714787212  0.6505822533322629  1.0000
  S   S1        1.0  0.7402319726454283  0.432490004342555  0.5105073946326749  1.0000
  S   S2        1.0  0.8564894752258545  0.05596213357296409  0.21520284565743933  1.0000
  S   S3        1.0  0.8765276657955967  0.5077998419215302  0.21542279037851644  1.0000
  S   S4        1.0  0.4636113566268918  0.23494815447081557  0.32799335505016436  1.0000
  S   S5        1.0  0.6252243173641201  0.5690991405778334  0.8697711898866952  1.0000
  S   S6        1.0  0.4637321781691295  0.4669339154644635  0.03963862514079319  1.0000
  S   S7        1.0  0.6199398509012137  0.42372339654378394  0.6696212782296084  1.0000
  S   S8        1.0  0.2196670712640818  0.6420546266352486  0.6369994784814839  1.0000
  S   S9        1.0  0.14419744171898108  0.6495170033807982  0.34722528654090334  1.0000
  S   S10       1.0  0.4820278880223846  0.8421667173720977  0.18622564056426372  1.0000
  S   S11       1.0  0.12179385323769595  0.04499749053629465  0.6975810391466346  1.0000
  S   S12       1.0  0.05035878507706726  0.5450748759769193  0.9706208517727901  1.0000
data_image79
_chemical_formula_structural       Sn4P4S12
_chemical_formula_sum              "Sn4 P4 S12"
_cell_length_a       7.57141576
_cell_length_b       6.596566975487068
_cell_length_c       11.859499654632444
_cell_angle_alpha    56.10713322711195
_cell_angle_beta     90.0
_cell_angle_gamma    90.0

_space_group_name_H-M_alt    "P 1"
_space_group_IT_number       1

loop_
  _space_group_symop_operation_xyz
  'x, y, z'

loop_
  _atom_site_type_symbol
  _atom_site_label
  _atom_site_symmetry_multiplicity
  _atom_site_fract_x
  _atom_site_fract_y
  _atom_site_fract_z
  _atom_site_occupancy
  Sn  Sn1       1.0  0.8976959332615043  0.8979274598261419  0.5723702641998425  1.0000
  Sn  Sn2       1.0  0.8994665404607333  0.14361397193923642  0.9846935253153384  1.0000
  Sn  Sn3       1.0  0.6014536976872885  0.9236413626585771  0.9154120816612991  1.0000
  Sn  Sn4       1.0  0.13332209535125303  0.26516006957105903  0.265128120435669  1.0000
  P   P1        1.0  0.3602028371925804  0.8242358643934792  0.35915451845220414  1.0000
  P   P2        1.0  0.29911812353621725  0.6618058102326709  0.7619152246460626  1.0000
  P   P3        1.0  0.7291536696448185  0.7076881410835774  0.288130707031081  1.0000
  P   P4        1.0  0.38570865258563725  0.0738238106984916  0.6304451168527697  1.0000
  S   S1        1.0  0.7370330907385239  0.4228249884706641  0.5063860844756813  1.0000
  S   S2        1.0  0.859234122072539  0.12420176506718428  0.20086651445309406  1.0000
  S   S3        1.0  0.8197027390537908  0.6092204671831765  0.15458832046838974  1.0000
  S   S4        1.0  0.43146050193981883  0.2614979503303009  0.33933602216559955  1.0000
  S   S5        1.0  0.7560196630555285  0.6848463437642347  0.8246741932541958  1.0000
  S   S6        1.0  0.49082214831884685  0.46303090010431414  0.9110687238621303  1.0000
  S   S7        1.0  0.6626907812338824  0.47400717422491645  0.6452005733306788  1.0000
  S   S8        1.0  0.16064539491587992  0.45665929964420304  0.7170722330483739  1.0000
  S   S9        1.0  0.19041951317977857  0.5932489604125774  0.3858362844155425  1.0000
  S   S10       1.0  0.4990261908196013  0.8549656511325221  0.1903344414952075  1.0000
  S   S11       1.0  0.14568199909528484  0.05350686252016312  0.6934522513480659  1.0000
  S   S12       1.0  0.19599213065977072  0.48604680767233877  0.9982554048307754  1.0000
data_image80
_chemical_formula_structural       Sn4P4S12
_chemical_formula_sum              "Sn4 P4 S12"
_cell_length_a       7.57141576
_cell_length_b       6.596566975487068
_cell_length_c       11.859499654632444
_cell_angle_alpha    56.10713322711195
_cell_angle_beta     90.0
_cell_angle_gamma    90.0

_space_group_name_H-M_alt    "P 1"
_space_group_IT_number       1

loop_
  _space_group_symop_operation_xyz
  'x, y, z'

loop_
  _atom_site_type_symbol
  _atom_site_label
  _atom_site_symmetry_multiplicity
  _atom_site_fract_x
  _atom_site_fract_y
  _atom_site_fract_z
  _atom_site_occupancy
  Sn  Sn1       1.0  0.8978847845487568  0.8111591660159279  0.6215354326872448  1.0000
  Sn  Sn2       1.0  0.8977129754336339  0.1809801963157458  0.993512704684563  1.0000
  Sn  Sn3       1.0  0.5836374910355263  0.8698558506768801  0.907847089863389  1.0000
  Sn  Sn4       1.0  0.12016673262716468  0.3988012716365612  0.20402184819330793  1.0000
  P   P1        1.0  0.37085900720300935  0.9777519907224285  0.333474683092804  1.0000
  P   P2        1.0  0.30944109054479413  0.6027648819914708  0.7838033185035136  1.0000
  P   P3        1.0  0.6684433533026003  0.7840166473464917  0.24989909627813445  1.0000
  P   P4        1.0  0.4106424746763349  0.9969837430736869  0.6833556363948734  1.0000
  S   S1        1.0  0.7389339308863885  0.4305824151451667  0.47701542304739203  1.0000
  S   S2        1.0  0.7728467022217778  0.9747306008004807  0.31858603003006325  1.0000
  S   S3        1.0  0.8641573922487653  0.6947650624046817  0.08147682953444227  1.0000
  S   S4        1.0  0.49705464929055  0.08090225516719829  0.49976489926519085  1.0000
  S   S5        1.0  0.8592193020700232  0.6617410797015724  0.8568258428035338  1.0000
  S   S6        1.0  0.5244624217685747  0.3913870455135783  0.8120055669893901  1.0000
  S   S7        1.0  0.6426693789150904  0.48173312281671754  0.6244124089284744  1.0000
  S   S8        1.0  0.16694559387905095  0.4472324909561277  0.715401865639173  1.0000
  S   S9        1.0  0.16766405631983705  0.7487383776361219  0.3983512770461557  1.0000
  S   S10       1.0  0.4889940802037982  0.012114770201965566  0.08917610004622101  1.0000
  S   S11       1.0  0.14344589751125944  0.9732233267604398  0.7291412355933561  1.0000
  S   S12       1.0  0.21989563278198032  0.3850352314813468  0.9928783107349265  1.0000
data_image81
_chemical_formula_structural       Sn4P4S12
_chemical_formula_sum              "Sn4 P4 S12"
_cell_length_a       7.57141576
_cell_length_b       6.596566975487068
_cell_length_c       11.859499654632444
_cell_angle_alpha    56.10713322711195
_cell_angle_beta     90.0
_cell_angle_gamma    90.0

_space_group_name_H-M_alt    "P 1"
_space_group_IT_number       1

loop_
  _space_group_symop_operation_xyz
  'x, y, z'

loop_
  _atom_site_type_symbol
  _atom_site_label
  _atom_site_symmetry_multiplicity
  _atom_site_fract_x
  _atom_site_fract_y
  _atom_site_fract_z
  _atom_site_occupancy
  Sn  Sn1       1.0  0.8367298209716503  0.8595189064678792  0.6039715247363895  1.0000
  Sn  Sn2       1.0  0.927782560054248  0.247330273417681  0.9910611858764757  1.0000
  Sn  Sn3       1.0  0.5142297863461596  0.8346532680204399  0.9184653695569424  1.0000
  Sn  Sn4       1.0  0.12361234646102756  0.48422540042501  0.1884680232287558  1.0000
  P   P1        1.0  0.43797842885362004  0.9451164038197191  0.29188190387085206  1.0000
  P   P2        1.0  0.32359505422462415  0.4222761925737825  0.7939608643602502  1.0000
  P   P3        1.0  0.6743346208260392  0.7188259145511728  0.31206929229773567  1.0000
  P   P4        1.0  0.402346867529622  0.8502291121160668  0.6789428613951141  1.0000
  S   S1        1.0  0.8353706812811622  0.45099604594004417  0.4958969015607487  1.0000
  S   S2        1.0  0.7904498975921135  0.05531622264661573  0.22494789677312688  1.0000
  S   S3        1.0  0.8153183971774487  0.6822945288487539  0.14359671266120275  1.0000
  S   S4        1.0  0.5510203811411859  0.07648690213291072  0.49843587407185497  1.0000
  S   S5        1.0  0.8873092639361773  0.7631663685144237  0.9093789041150786  1.0000
  S   S6        1.0  0.5889573186816601  0.2958635273198117  0.8058523620207361  1.0000
  S   S7        1.0  0.6112943956711041  0.5208825814245281  0.5679326493780907  1.0000
  S   S8        1.0  0.11741532737134985  0.38179712000368604  0.6874764725305034  1.0000
  S   S9        1.0  0.2792698224761865  0.7445793019742245  0.4308912787960162  1.0000
  S   S10       1.0  0.4669856432293392  0.9341922949900329  0.12513811434851285  1.0000
  S   S11       1.0  0.1367266561283345  0.9252538669036444  0.746156803839271  1.0000
  S   S12       1.0  0.28887977829077793  0.25835117007476566  0.025804378840821984  1.0000
data_image82
_chemical_formula_structural       Sn4P4S12
_chemical_formula_sum              "Sn4 P4 S12"
_cell_length_a       7.57141576
_cell_length_b       6.596566975487068
_cell_length_c       11.859499654632444
_cell_angle_alpha    56.10713322711195
_cell_angle_beta     90.0
_cell_angle_gamma    90.0

_space_group_name_H-M_alt    "P 1"
_space_group_IT_number       1

loop_
  _space_group_symop_operation_xyz
  'x, y, z'

loop_
  _atom_site_type_symbol
  _atom_site_label
  _atom_site_symmetry_multiplicity
  _atom_site_fract_x
  _atom_site_fract_y
  _atom_site_fract_z
  _atom_site_occupancy
  Sn  Sn1       1.0  0.8101013727054314  0.8555601487905895  0.6529812578161566  1.0000
  Sn  Sn2       1.0  0.9442124061000415  0.32718264207358616  0.9413814358077588  1.0000
  Sn  Sn3       1.0  0.4648468526721359  0.7353843605150213  0.961702381802859  1.0000
  Sn  Sn4       1.0  0.10145671319955198  0.4573463874891105  0.18942745419163387  1.0000
  P   P1        1.0  0.46323452430360507  0.9453209450557545  0.2543151534582269  1.0000
  P   P2        1.0  0.40434412796096003  0.3789135189864815  0.7409796509539522  1.0000
  P   P3        1.0  0.8541542534127422  0.7972681861017522  0.2843000296795199  1.0000
  P   P4        1.0  0.38757939125603136  0.7512889895046412  0.7222577858750215  1.0000
  S   S1        1.0  0.901190833611764  0.48815748540148984  0.4822284783614608  1.0000
  S   S2        1.0  0.8715382882818589  0.15439132310131365  0.24601478759005374  1.0000
  S   S3        1.0  0.7625012534453113  0.7125251335162421  0.15785634838059498  1.0000
  S   S4        1.0  0.46065713558434856  0.10148673285506983  0.5340630799421442  1.0000
  S   S5        1.0  0.01034826557454724  0.7283713229575982  0.8997061984815216  1.0000
  S   S6        1.0  0.6658072190246449  0.2655935265770194  0.7342099867222103  1.0000
  S   S7        1.0  0.5290505988967857  0.48885619226828336  0.5413800532819699  1.0000
  S   S8        1.0  0.1493658383719383  0.4338023435769106  0.6676778224056357  1.0000
  S   S9        1.0  0.2530108861470044  0.8352756800677789  0.40421409687711574  1.0000
  S   S10       1.0  0.323970870733039  0.8403464764570021  0.1341091639070653  1.0000
  S   S11       1.0  0.16362605369611974  0.9558709725987592  0.7129174361645949  1.0000
  S   S12       1.0  0.3168686205100857  0.3335489259697921  0.05715317946704368  1.0000
data_image83
_chemical_formula_structural       Sn4P4S12
_chemical_formula_sum              "Sn4 P4 S12"
_cell_length_a       7.57141576
_cell_length_b       6.596566975487068
_cell_length_c       11.859499654632444
_cell_angle_alpha    56.10713322711195
_cell_angle_beta     90.0
_cell_angle_gamma    90.0

_space_group_name_H-M_alt    "P 1"
_space_group_IT_number       1

loop_
  _space_group_symop_operation_xyz
  'x, y, z'

loop_
  _atom_site_type_symbol
  _atom_site_label
  _atom_site_symmetry_multiplicity
  _atom_site_fract_x
  _atom_site_fract_y
  _atom_site_fract_z
  _atom_site_occupancy
  Sn  Sn1       1.0  0.8029351052784673  0.867126071049076  0.6880751565232028  1.0000
  Sn  Sn2       1.0  0.9571262977702859  0.2972228224373741  0.9031523880443728  1.0000
  Sn  Sn3       1.0  0.4728260061823742  0.6720632055860478  0.0025458555076199713  1.0000
  Sn  Sn4       1.0  0.08733382850953032  0.4743903795582003  0.19081522438003173  1.0000
  P   P1        1.0  0.4228209440819076  0.9704388049234661  0.25928880570235147  1.0000
  P   P2        1.0  0.4460768975233185  0.39493501676989434  0.7053428357010976  1.0000
  P   P3        1.0  0.8884601399641684  0.8735438546029408  0.24569497518538488  1.0000
  P   P4        1.0  0.43920101506570297  0.7658573650974749  0.6839192727547383  1.0000
  S   S1        1.0  0.8506755848286119  0.5955734561942319  0.44714991328479964  1.0000
  S   S2        1.0  0.7326508567052318  0.1900185028565229  0.2062787227252696  1.0000
  S   S3        1.0  0.7839926613757521  0.8733150996961088  0.10697231785380013  1.0000
  S   S4        1.0  0.5153182363786611  0.07137730287492597  0.5162561801209457  1.0000
  S   S5        1.0  0.10522566731517297  0.7704906474758313  0.8987003903150683  1.0000
  S   S6        1.0  0.742041292908171  0.2184267615094181  0.7561529208778772  1.0000
  S   S7        1.0  0.5062641731091401  0.6082930476340872  0.4870705126092665  1.0000
  S   S8        1.0  0.19405672073355218  0.27408007621642105  0.7600012958468797  1.0000
  S   S9        1.0  0.25812895238479383  0.7093964072027019  0.5099044705314988  1.0000
  S   S10       1.0  0.295577978861263  0.8928685146140333  0.12988900143800008  1.0000
  S   S11       1.0  0.16485992645063607  0.946361663304609  0.6682321848338109  1.0000
  S   S12       1.0  0.1769634387928236  0.3035303334779205  0.043468285258493555  1.0000
data_image84
_chemical_formula_structural       Sn4P4S12
_chemical_formula_sum              "Sn4 P4 S12"
_cell_length_a       7.57141576
_cell_length_b       6.596566975487068
_cell_length_c       11.859499654632444
_cell_angle_alpha    56.10713322711195
_cell_angle_beta     90.0
_cell_angle_gamma    90.0

_space_group_name_H-M_alt    "P 1"
_space_group_IT_number       1

loop_
  _space_group_symop_operation_xyz
  'x, y, z'

loop_
  _atom_site_type_symbol
  _atom_site_label
  _atom_site_symmetry_multiplicity
  _atom_site_fract_x
  _atom_site_fract_y
  _atom_site_fract_z
  _atom_site_occupancy
  Sn  Sn1       1.0  0.8147980824145471  0.9338265313259807  0.664897904252595  1.0000
  Sn  Sn2       1.0  0.9428962686984903  0.3464044969074014  0.8508705603742469  1.0000
  Sn  Sn3       1.0  0.48621205773298876  0.6920189007750315  0.9877151718652472  1.0000
  Sn  Sn4       1.0  0.027996955221681018  0.47512728155116024  0.23478657343066275  1.0000
  P   P1        1.0  0.37340729261287503  0.9452667068471936  0.2837357778201525  1.0000
  P   P2        1.0  0.4307291452902441  0.4637217153736358  0.6317130124204443  1.0000
  P   P3        1.0  0.8875357800752569  0.9966185376688745  0.2240029697316096  1.0000
  P   P4        1.0  0.4662758426913073  0.7666099002565543  0.6817463687008982  1.0000
  S   S1        1.0  0.7514033892072955  0.624551351484754  0.4495247939353352  1.0000
  S   S2        1.0  0.6544532325190054  0.15840534014029073  0.16108222324089863  1.0000
  S   S3        1.0  0.863116833038332  0.8203932951543362  0.1230563344958615  1.0000
  S   S4        1.0  0.5492033327745153  0.09363125721832075  0.4937140246239462  1.0000
  S   S5        1.0  0.16123136382721034  0.961331321562134  0.8467720479351262  1.0000
  S   S6        1.0  0.6893050180594031  0.13342130587062395  0.7985368817135065  1.0000
  S   S7        1.0  0.5505471899321842  0.5981506516192235  0.36349122268157996  1.0000
  S   S8        1.0  0.3592426559215529  0.08777947430956412  0.8992959137268375  1.0000
  S   S9        1.0  0.15856622404329523  0.43992812296863193  0.6292814362090917  1.0000
  S   S10       1.0  0.3845767186658521  0.8186503842698124  0.16558684727551887  1.0000
  S   S11       1.0  0.1774432381223016  0.7092448534150563  0.7231256251565863  1.0000
  S   S12       1.0  0.24456619076709973  0.33825501103426064  0.1220146311068182  1.0000
data_image85
_chemical_formula_structural       Sn4P4S12
_chemical_formula_sum              "Sn4 P4 S12"
_cell_length_a       7.57141576
_cell_length_b       6.596566975487068
_cell_length_c       11.859499654632444
_cell_angle_alpha    56.10713322711195
_cell_angle_beta     90.0
_cell_angle_gamma    90.0

_space_group_name_H-M_alt    "P 1"
_space_group_IT_number       1

loop_
  _space_group_symop_operation_xyz
  'x, y, z'

loop_
  _atom_site_type_symbol
  _atom_site_label
  _atom_site_symmetry_multiplicity
  _atom_site_fract_x
  _atom_site_fract_y
  _atom_site_fract_z
  _atom_site_occupancy
  Sn  Sn1       1.0  0.7995526502982263  0.011456428139394959  0.5927290144484019  1.0000
  Sn  Sn2       1.0  0.8797180506160257  0.3991199502416478  0.8178337977217627  1.0000
  Sn  Sn3       1.0  0.5626419148603209  0.6705568968618207  0.9888490879434942  1.0000
  Sn  Sn4       1.0  0.0799537626870977  0.4315612301855363  0.273677712080647  1.0000
  P   P1        1.0  0.37041085605328816  0.9913576814252048  0.27865393112006487  1.0000
  P   P2        1.0  0.44832741483069233  0.29265970074431513  0.7009181622471904  1.0000
  P   P3        1.0  0.8393621330924798  0.9508823548832711  0.2423969653837778  1.0000
  P   P4        1.0  0.4595603950353772  0.6961092470219756  0.7031665539079628  1.0000
  S   S1        1.0  0.762388604153277  0.6682779994158616  0.4761460464797701  1.0000
  S   S2        1.0  0.6579033395999555  0.21366960828756176  0.1281677852772059  1.0000
  S   S3        1.0  0.8384765610123246  0.7853862839862522  0.13588827113578383  1.0000
  S   S4        1.0  0.442853405907708  0.05051763135407922  0.5076856191706959  1.0000
  S   S5        1.0  0.10938310290839069  0.10010367582714194  0.8338524695747441  1.0000
  S   S6        1.0  0.6839359898157533  0.14575706593893178  0.7365296960030302  1.0000
  S   S7        1.0  0.5139835065514526  0.5853366424375875  0.41301178184010207  1.0000
  S   S8        1.0  0.3609590662133735  0.12642169266678538  0.934191090395091  1.0000
  S   S9        1.0  0.14810598337245828  0.23699775807760767  0.6329794214734461  1.0000
  S   S10       1.0  0.39570570161915763  0.7624053976644154  0.22508119370587787  1.0000
  S   S11       1.0  0.24404797254700353  0.7255709735685234  0.7853792783177959  1.0000
  S   S12       1.0  0.2399027819403572  0.37484187411121095  0.10683964607555119  1.0000
data_image86
_chemical_formula_structural       Sn4P4S12
_chemical_formula_sum              "Sn4 P4 S12"
_cell_length_a       7.57141576
_cell_length_b       6.596566975487068
_cell_length_c       11.859499654632444
_cell_angle_alpha    56.10713322711195
_cell_angle_beta     90.0
_cell_angle_gamma    90.0

_space_group_name_H-M_alt    "P 1"
_space_group_IT_number       1

loop_
  _space_group_symop_operation_xyz
  'x, y, z'

loop_
  _atom_site_type_symbol
  _atom_site_label
  _atom_site_symmetry_multiplicity
  _atom_site_fract_x
  _atom_site_fract_y
  _atom_site_fract_z
  _atom_site_occupancy
  Sn  Sn1       1.0  0.7553999044351926  0.06349898959947975  0.5446374021302035  1.0000
  Sn  Sn2       1.0  0.8091947594259016  0.3660420772658779  0.8381761142149506  1.0000
  Sn  Sn3       1.0  0.6321326465102433  0.6674608364495278  0.9600891454343383  1.0000
  Sn  Sn4       1.0  0.0980434821260128  0.4734502758574134  0.2724335479149264  1.0000
  P   P1        1.0  0.3583043328379418  0.07717573908226433  0.28388784025278124  1.0000
  P   P2        1.0  0.3275443378574355  0.2874895676818634  0.6407418208860692  1.0000
  P   P3        1.0  0.8456363605969163  0.8106871335445909  0.29010414467319445  1.0000
  P   P4        1.0  0.3476278541120588  0.7293988462711121  0.6222163380768633  1.0000
  S   S1        1.0  0.7560065812524155  0.6876439071621168  0.5293039187184192  1.0000
  S   S2        1.0  0.6680237617490425  0.09472501484739482  0.23070016691252013  1.0000
  S   S3        1.0  0.8993032943567477  0.8501213280874678  0.0842286234113062  1.0000
  S   S4        1.0  0.45811585610382377  0.08040758635743198  0.5086336513626188  1.0000
  S   S5        1.0  0.2244190396844384  0.12997465614341677  0.8934768414055004  1.0000
  S   S6        1.0  0.6472832247594495  0.09956941524516016  0.787380022147889  1.0000
  S   S7        1.0  0.560855609398503  0.5864566841729157  0.44322493717641376  1.0000
  S   S8        1.0  0.4343704688532495  0.01851255322566958  0.007607583688642228  1.0000
  S   S9        1.0  0.10794508397607872  0.15206574789239585  0.6494580698638213  1.0000
  S   S10       1.0  0.3862096810646497  0.7894239228668434  0.19143382539124598  1.0000
  S   S11       1.0  0.3211458885862628  0.6984741189860254  0.7992903062295826  1.0000
  S   S12       1.0  0.2650458662783268  0.40489353032325626  0.08746778531491572  1.0000
data_image87
_chemical_formula_structural       Sn4P4S12
_chemical_formula_sum              "Sn4 P4 S12"
_cell_length_a       7.57141576
_cell_length_b       6.596566975487068
_cell_length_c       11.859499654632444
_cell_angle_alpha    56.10713322711195
_cell_angle_beta     90.0
_cell_angle_gamma    90.0

_space_group_name_H-M_alt    "P 1"
_space_group_IT_number       1

loop_
  _space_group_symop_operation_xyz
  'x, y, z'

loop_
  _atom_site_type_symbol
  _atom_site_label
  _atom_site_symmetry_multiplicity
  _atom_site_fract_x
  _atom_site_fract_y
  _atom_site_fract_z
  _atom_site_occupancy
  Sn  Sn1       1.0  0.8045826931440316  0.062202023446525256  0.5451969748952584  1.0000
  Sn  Sn2       1.0  0.8170043095320515  0.3594917392712518  0.8091118451479778  1.0000
  Sn  Sn3       1.0  0.6973174117603338  0.6954457849337666  0.9517131243557365  1.0000
  Sn  Sn4       1.0  0.07476766695796813  0.4174935398189422  0.30028794946491744  1.0000
  P   P1        1.0  0.3739803053355293  0.07155406360369186  0.2667366482268757  1.0000
  P   P2        1.0  0.3014538510190211  0.356217790591161  0.679540738807392  1.0000
  P   P3        1.0  0.7854338070345948  0.8460944350434191  0.304915393373478  1.0000
  P   P4        1.0  0.23088050652838368  0.757857621721401  0.6587242318509707  1.0000
  S   S1        1.0  0.8210048529619368  0.689776135201877  0.5074822053114109  1.0000
  S   S2        1.0  0.6334003944448131  0.21025029147082597  0.25494596592141444  1.0000
  S   S3        1.0  0.8415272557282666  0.9228349922878003  0.11968375010230516  1.0000
  S   S4        1.0  0.30726541146667014  0.0553066190780608  0.47353069767314143  1.0000
  S   S5        1.0  0.22378970344910964  0.11161373007308593  0.8971599246508812  1.0000
  S   S6        1.0  0.6111530462253445  0.10936310476985589  0.713413694099747  1.0000
  S   S7        1.0  0.6551711889981919  0.45495509151110947  0.41934688838552936  1.0000
  S   S8        1.0  0.4687045061966306  0.04782817833900277  0.9797837176469517  1.0000
  S   S9        1.0  0.017871562474440772  0.25175379974890477  0.635917563895346  1.0000
  S   S10       1.0  0.3654203735609992  0.8232788848805951  0.21069652254894677  1.0000
  S   S11       1.0  0.4077465464908837  0.6299079622524759  0.8133002726114107  1.0000
  S   S12       1.0  0.19348936257060423  0.29607481099746613  0.1528691599288674  1.0000
data_image88
_chemical_formula_structural       Sn4P4S12
_chemical_formula_sum              "Sn4 P4 S12"
_cell_length_a       7.57141576
_cell_length_b       6.596566975487068
_cell_length_c       11.859499654632444
_cell_angle_alpha    56.10713322711195
_cell_angle_beta     90.0
_cell_angle_gamma    90.0

_space_group_name_H-M_alt    "P 1"
_space_group_IT_number       1

loop_
  _space_group_symop_operation_xyz
  'x, y, z'

loop_
  _atom_site_type_symbol
  _atom_site_label
  _atom_site_symmetry_multiplicity
  _atom_site_fract_x
  _atom_site_fract_y
  _atom_site_fract_z
  _atom_site_occupancy
  Sn  Sn1       1.0  0.823075789350074  0.10304906676430137  0.5498153783050163  1.0000
  Sn  Sn2       1.0  0.7838252342421661  0.4206252083506645  0.756102874825867  1.0000
  Sn  Sn3       1.0  0.707452855034135  0.7116156717995277  0.9671494460193487  1.0000
  Sn  Sn4       1.0  0.03768679219086409  0.31530457194503086  0.31937278157491894  1.0000
  P   P1        1.0  0.3637247595373692  0.12451610117324326  0.24850264197928412  1.0000
  P   P2        1.0  0.2457338228147748  0.3775868834990956  0.6536339460069002  1.0000
  P   P3        1.0  0.7838201315342224  0.8818630340654788  0.30858096981270067  1.0000
  P   P4        1.0  0.1574378625591703  0.5698560243150269  0.7805175075334092  1.0000
  S   S1        1.0  0.9284837800380746  0.7483132220057283  0.4681831861750465  1.0000
  S   S2        1.0  0.6326200953680097  0.1915123022584564  0.25229281513574725  1.0000
  S   S3        1.0  0.9689672447496352  0.93478742559637  0.15254829285464175  1.0000
  S   S4        1.0  0.3287360853546587  0.9129999025637987  0.47076711330581344  1.0000
  S   S5        1.0  0.23986194525576837  0.10873890067416885  0.8659875648568603  1.0000
  S   S6        1.0  0.6393026998403533  0.09126339531247252  0.7290513300935267  1.0000
  S   S7        1.0  0.577737445237721  0.6786650042713066  0.33616412810324564  1.0000
  S   S8        1.0  0.5640930109004119  0.051013704209021626  0.9713453361505043  1.0000
  S   S9        1.0  0.036797356971074224  0.10847424598118578  0.741913832635261  1.0000
  S   S10       1.0  0.3894591627497881  0.8811102054950788  0.19927815266317928  1.0000
  S   S11       1.0  0.38938929212358014  0.5648987321758537  0.8650073785031765  1.0000
  S   S12       1.0  0.14390881561135926  0.3476472105564432  0.09930370120436782  1.0000
data_image89
_chemical_formula_structural       Sn4P4S12
_chemical_formula_sum              "Sn4 P4 S12"
_cell_length_a       7.57141576
_cell_length_b       6.596566975487068
_cell_length_c       11.859499654632444
_cell_angle_alpha    56.10713322711195
_cell_angle_beta     90.0
_cell_angle_gamma    90.0

_space_group_name_H-M_alt    "P 1"
_space_group_IT_number       1

loop_
  _space_group_symop_operation_xyz
  'x, y, z'

loop_
  _atom_site_type_symbol
  _atom_site_label
  _atom_site_symmetry_multiplicity
  _atom_site_fract_x
  _atom_site_fract_y
  _atom_site_fract_z
  _atom_site_occupancy
  Sn  Sn1       1.0  0.7884218725792872  0.0664976468554237  0.5830852682202512  1.0000
  Sn  Sn2       1.0  0.7320050332270224  0.43381188759516465  0.7690737095008136  1.0000
  Sn  Sn3       1.0  0.7453798180122645  0.7206000483572871  0.014480537333765676  1.0000
  Sn  Sn4       1.0  0.051437728835520044  0.33586386448767347  0.29809762976535215  1.0000
  P   P1        1.0  0.382063151375688  0.19865072232372677  0.15982005274416183  1.0000
  P   P2        1.0  0.20460003719656777  0.3637036681080757  0.6538721293619816  1.0000
  P   P3        1.0  0.8585796417432582  0.823464383408691  0.31339955089183374  1.0000
  P   P4        1.0  0.2296331619990563  0.39810854107755145  0.8480651852720125  1.0000
  S   S1        1.0  0.93049211876351  0.6715564240609384  0.5054862458845677  1.0000
  S   S2        1.0  0.7315901237070161  0.26603851378679977  0.17579360568033114  1.0000
  S   S3        1.0  0.9476783901167146  0.8613480089232659  0.0781256325733862  1.0000
  S   S4        1.0  0.2483802968675287  0.011918745923727802  0.346496244421159  1.0000
  S   S5        1.0  0.18419627223816185  0.012717077222809223  0.9482039397580136  1.0000
  S   S6        1.0  0.536715354523926  0.3042323137932915  0.6383071710910121  1.0000
  S   S7        1.0  0.6355187502812168  0.6234532196163769  0.3612595524116889  1.0000
  S   S8        1.0  0.5063679705296409  0.05739165445074912  0.9590634930193465  1.0000
  S   S9        1.0  0.9750630863290661  0.13106823282399713  0.7472227255790536  1.0000
  S   S10       1.0  0.4914453494504978  0.7356639526341299  0.1910139275263507  1.0000
  S   S11       1.0  0.4273021837674151  0.6006890846736811  0.8789603136064175  1.0000
  S   S12       1.0  0.22957898274620492  0.4842257722328805  0.06959832538340516  1.0000
data_image90
_chemical_formula_structural       Sn4P4S12
_chemical_formula_sum              "Sn4 P4 S12"
_cell_length_a       7.57141576
_cell_length_b       6.596566975487068
_cell_length_c       11.859499654632444
_cell_angle_alpha    56.10713322711195
_cell_angle_beta     90.0
_cell_angle_gamma    90.0

_space_group_name_H-M_alt    "P 1"
_space_group_IT_number       1

loop_
  _space_group_symop_operation_xyz
  'x, y, z'

loop_
  _atom_site_type_symbol
  _atom_site_label
  _atom_site_symmetry_multiplicity
  _atom_site_fract_x
  _atom_site_fract_y
  _atom_site_fract_z
  _atom_site_occupancy
  Sn  Sn1       1.0  0.746226190020919  0.07718674841495599  0.5842597349313384  1.0000
  Sn  Sn2       1.0  0.7150153063189886  0.4460926826042464  0.8183833954427882  1.0000
  Sn  Sn3       1.0  0.7403990621796313  0.66293804165429  0.02448726560494364  1.0000
  Sn  Sn4       1.0  0.09435271301660929  0.38999115527639716  0.2978394794170358  1.0000
  P   P1        1.0  0.38721171698271545  0.20583078927694431  0.2041136103171274  1.0000
  P   P2        1.0  0.2414473066040734  0.38039852921843137  0.6245988101936589  1.0000
  P   P3        1.0  0.8761556482015257  0.8327881100711462  0.34018227703542925  1.0000
  P   P4        1.0  0.2900013483201898  0.4494975783889944  0.7843498178543139  1.0000
  S   S1        1.0  0.9818073558131477  0.6328937571425446  0.5285694331572397  1.0000
  S   S2        1.0  0.7794573563231398  0.13298634604301363  0.21725616855838964  1.0000
  S   S3        1.0  0.9481707934006314  0.8097357469475723  0.14041997301809464  1.0000
  S   S4        1.0  0.22761841358161158  0.9521416209392269  0.2720729641760609  1.0000
  S   S5        1.0  0.19279312278647148  0.0691296480979169  0.9687700730243863  1.0000
  S   S6        1.0  0.5306635277419507  0.2399479142015023  0.6670022201514729  1.0000
  S   S7        1.0  0.7124861788343564  0.5668924993729307  0.33354902587843394  1.0000
  S   S8        1.0  0.4879908893001461  0.12321592760737343  0.9076840946771288  1.0000
  S   S9        1.0  0.9257662341509613  0.032499648073349305  0.8149358930828918  1.0000
  S   S10       1.0  0.39837554521852014  0.7361285792606314  0.09627001601501739  1.0000
  S   S11       1.0  0.36047860981652213  0.8062100184139436  0.7068993163166706  1.0000
  S   S12       1.0  0.26225889922977297  0.5007749727980185  0.04484308635023093  1.0000
data_image91
_chemical_formula_structural       Sn4P4S12
_chemical_formula_sum              "Sn4 P4 S12"
_cell_length_a       7.57141576
_cell_length_b       6.596566975487068
_cell_length_c       11.859499654632444
_cell_angle_alpha    56.10713322711195
_cell_angle_beta     90.0
_cell_angle_gamma    90.0

_space_group_name_H-M_alt    "P 1"
_space_group_IT_number       1

loop_
  _space_group_symop_operation_xyz
  'x, y, z'

loop_
  _atom_site_type_symbol
  _atom_site_label
  _atom_site_symmetry_multiplicity
  _atom_site_fract_x
  _atom_site_fract_y
  _atom_site_fract_z
  _atom_site_occupancy
  Sn  Sn1       1.0  0.7450813379719722  0.03610289770697239  0.5894140590171928  1.0000
  Sn  Sn2       1.0  0.7672288596281637  0.42838534579755594  0.8395546110376519  1.0000
  Sn  Sn3       1.0  0.7016779082062422  0.6051508045472702  0.029549215716919267  1.0000
  Sn  Sn4       1.0  0.18402979118859536  0.3496833354709805  0.3192003598565855  1.0000
  P   P1        1.0  0.39398695549306767  0.1604565304080312  0.19577880241631762  1.0000
  P   P2        1.0  0.2885847157939302  0.5198419120873765  0.5708487899883518  1.0000
  P   P3        1.0  0.736221091779222  0.7942480275509031  0.3682861623578254  1.0000
  P   P4        1.0  0.21074795804607058  0.469101619917064  0.7624741096406521  1.0000
  S   S1        1.0  0.9112473368400268  0.7268598495164644  0.5309440825508017  1.0000
  S   S2        1.0  0.922857140686222  0.23343438263398664  0.22684614828648728  1.0000
  S   S3        1.0  0.8380264364539498  0.9082645376271141  0.0737244435730408  1.0000
  S   S4        1.0  0.18097623434302884  0.8830326373871866  0.2902127649094585  1.0000
  S   S5        1.0  0.17984059587445578  0.17121556315669292  0.9291550192011299  1.0000
  S   S6        1.0  0.5166542334765294  0.4163338213324892  0.6202048394937543  1.0000
  S   S7        1.0  0.7938174842569106  0.45177806716454383  0.3652838315486401  1.0000
  S   S8        1.0  0.4496899450154155  0.10720584852415616  0.9295841109723924  1.0000
  S   S9        1.0  0.8680388649719832  0.10594720060141714  0.8002830111198682  1.0000
  S   S10       1.0  0.3354680925187735  0.7231014190746983  0.12368341061764832  1.0000
  S   S11       1.0  0.3315335379895686  0.8427172109055454  0.6219951108303388  1.0000
  S   S12       1.0  0.25799079305549943  0.5409549767140727  0.04466982783727236  1.0000
data_image92
_chemical_formula_structural       Sn4P4S12
_chemical_formula_sum              "Sn4 P4 S12"
_cell_length_a       7.57141576
_cell_length_b       6.596566975487068
_cell_length_c       11.859499654632444
_cell_angle_alpha    56.10713322711195
_cell_angle_beta     90.0
_cell_angle_gamma    90.0

_space_group_name_H-M_alt    "P 1"
_space_group_IT_number       1

loop_
  _space_group_symop_operation_xyz
  'x, y, z'

loop_
  _atom_site_type_symbol
  _atom_site_label
  _atom_site_symmetry_multiplicity
  _atom_site_fract_x
  _atom_site_fract_y
  _atom_site_fract_z
  _atom_site_occupancy
  Sn  Sn1       1.0  0.7022919185311474  0.06142293823417466  0.6203387678997638  1.0000
  Sn  Sn2       1.0  0.784584020578578  0.36516951292257827  0.8394636880719845  1.0000
  Sn  Sn3       1.0  0.7088714642314045  0.623963300427159  0.014209567768702512  1.0000
  Sn  Sn4       1.0  0.1633664641338163  0.3015778718326059  0.36346530240041897  1.0000
  P   P1        1.0  0.39281722388604284  0.12792520910242933  0.17176707041594363  1.0000
  P   P2        1.0  0.2566228309764573  0.5525174513828601  0.5701966551132485  1.0000
  P   P3        1.0  0.6960102981814358  0.7047170842622135  0.38912029003974585  1.0000
  P   P4        1.0  0.10041214256425786  0.7073151936223483  0.6525931892248172  1.0000
  S   S1        1.0  0.8803381059631167  0.8048768026953041  0.5214186475506684  1.0000
  S   S2        1.0  0.9251272690899638  0.30815413676561043  0.17616018152405144  1.0000
  S   S3        1.0  0.7949257743188959  0.9841828467223397  0.08502633387280643  1.0000
  S   S4        1.0  0.21263516930327972  0.8862665311326143  0.29296987028569804  1.0000
  S   S5        1.0  0.21798072535052695  0.2374982373755027  0.9574922596071451  1.0000
  S   S6        1.0  0.4769423005083824  0.4014337001202999  0.5457579184263116  1.0000
  S   S7        1.0  0.8770347142076894  0.43946050423452526  0.432157315399567  1.0000
  S   S8        1.0  0.4055324925031121  0.031553531112061384  0.9552686942548065  1.0000
  S   S9        1.0  0.9052939364159183  0.02209868710038939  0.770945250875875  1.0000
  S   S10       1.0  0.47498046474779265  0.7373727334835458  0.14135527237168333  1.0000
  S   S11       1.0  0.38863566422079293  0.8440505840295582  0.5893104803070452  1.0000
  S   S12       1.0  0.3471917179938184  0.5105724801477026  0.9806669900396436  1.0000
data_image93
_chemical_formula_structural       Sn4P4S12
_chemical_formula_sum              "Sn4 P4 S12"
_cell_length_a       7.57141576
_cell_length_b       6.596566975487068
_cell_length_c       11.859499654632444
_cell_angle_alpha    56.10713322711195
_cell_angle_beta     90.0
_cell_angle_gamma    90.0

_space_group_name_H-M_alt    "P 1"
_space_group_IT_number       1

loop_
  _space_group_symop_operation_xyz
  'x, y, z'

loop_
  _atom_site_type_symbol
  _atom_site_label
  _atom_site_symmetry_multiplicity
  _atom_site_fract_x
  _atom_site_fract_y
  _atom_site_fract_z
  _atom_site_occupancy
  Sn  Sn1       1.0  0.687873963850852  0.05050659657569434  0.6250149821775742  1.0000
  Sn  Sn2       1.0  0.7884574828121353  0.3219134516349569  0.8564914619658074  1.0000
  Sn  Sn3       1.0  0.7520879100954639  0.6167269812260459  0.005727780621964622  1.0000
  Sn  Sn4       1.0  0.15143364073343912  0.2615630879597983  0.360452682596773  1.0000
  P   P1        1.0  0.422561633877492  0.24129321030479212  0.20219352798203039  1.0000
  P   P2        1.0  0.22602416119474628  0.588422544576769  0.5385257351246141  1.0000
  P   P3        1.0  0.6691165971633342  0.724235049996702  0.2987866661821095  1.0000
  P   P4        1.0  0.11272795562683634  0.6880032145538397  0.6613827141867988  1.0000
  S   S1        1.0  0.9256729539521826  0.925502377931412  0.5426464009009407  1.0000
  S   S2        1.0  0.9985406964932291  0.34578585532044115  0.1303208094698026  1.0000
  S   S3        1.0  0.7700909592128925  0.966990145002679  0.12029749919782044  1.0000
  S   S4        1.0  0.18308576252288558  0.8764905528026871  0.27671884687440235  1.0000
  S   S5        1.0  0.18106506824470062  0.23738535971519142  0.9584028849672654  1.0000
  S   S6        1.0  0.44431601116615105  0.39070924550968755  0.5843518530425158  1.0000
  S   S7        1.0  0.8581869642893594  0.45152113756850853  0.45144503553630966  1.0000
  S   S8        1.0  0.42034476687193445  0.10183233088519905  0.9188320554256336  1.0000
  S   S9        1.0  0.8715507591410339  0.008140925871405937  0.8220616293077816  1.0000
  S   S10       1.0  0.5032593607768037  0.7738426328068342  0.11995689113879027  1.0000
  S   S11       1.0  0.35855001080932036  0.8921750859295177  0.5628620217270337  1.0000
  S   S12       1.0  0.3291426372570796  0.4771369960140038  0.9998732616491058  1.0000
data_image94
_chemical_formula_structural       Sn4P4S12
_chemical_formula_sum              "Sn4 P4 S12"
_cell_length_a       7.57141576
_cell_length_b       6.596566975487068
_cell_length_c       11.859499654632444
_cell_angle_alpha    56.10713322711195
_cell_angle_beta     90.0
_cell_angle_gamma    90.0

_space_group_name_H-M_alt    "P 1"
_space_group_IT_number       1

loop_
  _space_group_symop_operation_xyz
  'x, y, z'

loop_
  _atom_site_type_symbol
  _atom_site_label
  _atom_site_symmetry_multiplicity
  _atom_site_fract_x
  _atom_site_fract_y
  _atom_site_fract_z
  _atom_site_occupancy
  Sn  Sn1       1.0  0.6841969829328267  0.020258967348346646  0.645119810376336  1.0000
  Sn  Sn2       1.0  0.7569117492380928  0.38164375531630523  0.8521429012103817  1.0000
  Sn  Sn3       1.0  0.7654064005489641  0.6326855631656014  0.9870426175599666  1.0000
  Sn  Sn4       1.0  0.1303908701598966  0.27247465607518423  0.3587195388741422  1.0000
  P   P1        1.0  0.41352271175776373  0.17776870628283167  0.19035692963969444  1.0000
  P   P2        1.0  0.23824845916539947  0.5144038713130754  0.4956614605882047  1.0000
  P   P3        1.0  0.6651205563836515  0.8148703829534517  0.3093394519628584  1.0000
  P   P4        1.0  0.1644852067168891  0.748039273622956  0.5646429842369123  1.0000
  S   S1        1.0  0.928481507673322  0.8935537527626651  0.5436264634679879  1.0000
  S   S2        1.0  0.9426603005891434  0.25971654998010507  0.1828480589047023  1.0000
  S   S3        1.0  0.8318532342462658  0.8653541490996115  0.15263866942599907  1.0000
  S   S4        1.0  0.22499858660265062  0.8926478725443305  0.31300777701087207  1.0000
  S   S5        1.0  0.17679164585283913  0.23105311323222874  0.9553775926014121  1.0000
  S   S6        1.0  0.44580193545883695  0.41673760153805883  0.6563301980752628  1.0000
  S   S7        1.0  0.7864463125964085  0.4607249768599817  0.4125889202490554  1.0000
  S   S8        1.0  0.5058849481816179  0.058601572294902815  0.9121678725309347  1.0000
  S   S9        1.0  0.9363852344149656  0.9602560038817289  0.829622847844957  1.0000
  S   S10       1.0  0.5901929212774142  0.8075770352000985  0.10525605385406855  1.0000
  S   S11       1.0  0.34885930970501067  0.9367981884401235  0.5810922081602308  1.0000
  S   S12       1.0  0.23272412504726425  0.4423645525516208  0.9968630758733481  1.0000
data_image95
_chemical_formula_structural       Sn4P4S12
_chemical_formula_sum              "Sn4 P4 S12"
_cell_length_a       7.57141576
_cell_length_b       6.596566975487068
_cell_length_c       11.859499654632444
_cell_angle_alpha    56.10713322711195
_cell_angle_beta     90.0
_cell_angle_gamma    90.0

_space_group_name_H-M_alt    "P 1"
_space_group_IT_number       1

loop_
  _space_group_symop_operation_xyz
  'x, y, z'

loop_
  _atom_site_type_symbol
  _atom_site_label
  _atom_site_symmetry_multiplicity
  _atom_site_fract_x
  _atom_site_fract_y
  _atom_site_fract_z
  _atom_site_occupancy
  Sn  Sn1       1.0  0.6351392748520039  0.033650394433110575  0.6789472898428455  1.0000
  Sn  Sn2       1.0  0.772162150738622  0.3690478866855247  0.8343610831235397  1.0000
  Sn  Sn3       1.0  0.7075391718999213  0.6365562690059072  0.9814734999381117  1.0000
  Sn  Sn4       1.0  0.1412381250037599  0.29843465874496755  0.4015229454192257  1.0000
  P   P1        1.0  0.46502495202124156  0.07560484750895488  0.15615231925266987  1.0000
  P   P2        1.0  0.342932537775263  0.5810901185236941  0.43949844395066345  1.0000
  P   P3        1.0  0.8124657490950611  0.8404635405160902  0.2718986602228438  1.0000
  P   P4        1.0  0.2183535562564238  0.7279689413029693  0.5494655477155261  1.0000
  S   S1        1.0  0.9662006923871972  0.8337999857307083  0.5257854794029614  1.0000
  S   S2        1.0  0.8082235609715231  0.23305818294394198  0.2384005814072239  1.0000
  S   S3        1.0  0.9254083848170854  0.8492440469941687  0.086606143999726  1.0000
  S   S4        1.0  0.24797026434328648  0.8939891262930113  0.28010424912202114  1.0000
  S   S5        1.0  0.07063153752548497  0.2123952184318457  0.957746626860244  1.0000
  S   S6        1.0  0.544994895296705  0.4012117717918142  0.6573997275619997  1.0000
  S   S7        1.0  0.7439620626619798  0.48272763754032694  0.40868714865902217  1.0000
  S   S8        1.0  0.4582898614957931  3.822463526137465e-05  0.9758734860402776  1.0000
  S   S9        1.0  0.9355506934224777  0.11536750042150509  0.7720916600741619  1.0000
  S   S10       1.0  0.5605749658402859  0.7880655699767048  0.15213718342248272  1.0000
  S   S11       1.0  0.4103808473336529  0.9796016667177067  0.49741235914061044  1.0000
  S   S12       1.0  0.23386235934747357  0.35398109273627554  0.028876645354667607  1.0000
data_image96
_chemical_formula_structural       Sn4P4S12
_chemical_formula_sum              "Sn4 P4 S12"
_cell_length_a       7.57141576
_cell_length_b       6.596566975487068
_cell_length_c       11.859499654632444
_cell_angle_alpha    56.10713322711195
_cell_angle_beta     90.0
_cell_angle_gamma    90.0

_space_group_name_H-M_alt    "P 1"
_space_group_IT_number       1

loop_
  _space_group_symop_operation_xyz
  'x, y, z'

loop_
  _atom_site_type_symbol
  _atom_site_label
  _atom_site_symmetry_multiplicity
  _atom_site_fract_x
  _atom_site_fract_y
  _atom_site_fract_z
  _atom_site_occupancy
  Sn  Sn1       1.0  0.6145366196374606  0.0020395508725665756  0.6596232162634402  1.0000
  Sn  Sn2       1.0  0.7954049406936079  0.3586848168380612  0.821060402517812  1.0000
  Sn  Sn3       1.0  0.6915767196176652  0.6750366261977075  0.001053232876607133  1.0000
  Sn  Sn4       1.0  0.10533156916853681  0.2854189891090008  0.42350904648104337  1.0000
  P   P1        1.0  0.41262787293670916  0.1110837798979572  0.13258481910800127  1.0000
  P   P2        1.0  0.32014101611752677  0.5743315978607854  0.4772592372729591  1.0000
  P   P3        1.0  0.8215128727451336  0.8683459615400715  0.19769372192425472  1.0000
  P   P4        1.0  0.2825439242162765  0.6520289460614461  0.6366655263839229  1.0000
  S   S1        1.0  0.03854052786008011  0.7627471396125507  0.547953948457415  1.0000
  S   S2        1.0  0.7229128255676712  0.10962791075781464  0.2614865048691796  1.0000
  S   S3        1.0  0.03738581035124766  0.7639226887011454  0.13470092357421545  1.0000
  S   S4        1.0  0.22159980404329124  0.861803366381023  0.3037201821266334  1.0000
  S   S5        1.0  0.17068719756048412  0.22481271289961455  0.9608415683561422  1.0000
  S   S6        1.0  0.5485617007007881  0.5128552518490249  0.6207917947745899  1.0000
  S   S7        1.0  0.7938531409894963  0.5281951303379013  0.3864889569413831  1.0000
  S   S8        1.0  0.396854816885837  0.06641142000980349  0.9518240075719344  1.0000
  S   S9        1.0  0.9133773747425495  0.17202440850359502  0.6714238448387122  1.0000
  S   S10       1.0  0.5594345214675771  0.7288798135709194  0.196778715827292  1.0000
  S   S11       1.0  0.38774310525921174  0.04889702012242925  0.44671770373694897  1.0000
  S   S12       1.0  0.3026361051636548  0.4452030354917507  0.03827275634205041  1.0000
data_image97
_chemical_formula_structural       Sn4P4S12
_chemical_formula_sum              "Sn4 P4 S12"
_cell_length_a       7.57141576
_cell_length_b       6.596566975487068
_cell_length_c       11.859499654632444
_cell_angle_alpha    56.10713322711195
_cell_angle_beta     90.0
_cell_angle_gamma    90.0

_space_group_name_H-M_alt    "P 1"
_space_group_IT_number       1

loop_
  _space_group_symop_operation_xyz
  'x, y, z'

loop_
  _atom_site_type_symbol
  _atom_site_label
  _atom_site_symmetry_multiplicity
  _atom_site_fract_x
  _atom_site_fract_y
  _atom_site_fract_z
  _atom_site_occupancy
  Sn  Sn1       1.0  0.6203070693622217  0.06127267768165057  0.6659716885775782  1.0000
  Sn  Sn2       1.0  0.8293772108216018  0.34044760777958905  0.8444500443333508  1.0000
  Sn  Sn3       1.0  0.7086949511651169  0.7408135030059289  0.987261346039636  1.0000
  Sn  Sn4       1.0  0.06888686077324697  0.23703887541075896  0.4276499935254724  1.0000
  P   P1        1.0  0.4170264220123575  0.9856632111811469  0.09793169183510769  1.0000
  P   P2        1.0  0.25278876322379285  0.6094865710388466  0.4624722315490309  1.0000
  P   P3        1.0  0.7758452653485012  0.8497138001275913  0.2315084730932591  1.0000
  P   P4        1.0  0.2850905876619695  0.7172207258969758  0.6268338137495554  1.0000
  S   S1        1.0  0.04658520959651469  0.6509744152515691  0.59632584546461  1.0000
  S   S2        1.0  0.7738762247398931  0.19438925945053342  0.13544792414958004  1.0000
  S   S3        1.0  0.9815282046752981  0.7392700477399441  0.11461657738172423  1.0000
  S   S4        1.0  0.2311072362687738  0.8989229108817223  0.29561941069073716  1.0000
  S   S5        1.0  0.14215899777813884  0.38113198406881327  0.9267360988206051  1.0000
  S   S6        1.0  0.5021608243130211  0.48930428019836836  0.606190516674272  1.0000
  S   S7        1.0  0.8301284563789889  0.5110465254128973  0.4314374108225651  1.0000
  S   S8        1.0  0.3126176911834939  0.023559650430154844  0.938900422701374  1.0000
  S   S9        1.0  0.9519524719344346  0.9975991603263048  0.7244135130680669  1.0000
  S   S10       1.0  0.539829062220539  0.6660434469361792  0.20671103821019643  1.0000
  S   S11       1.0  0.4842070560269902  0.08385197342381678  0.4593979928188031  1.0000
  S   S12       1.0  0.3226291051190706  0.419230637313444  0.03471126026383131  1.0000
data_image98
_chemical_formula_structural       Sn4P4S12
_chemical_formula_sum              "Sn4 P4 S12"
_cell_length_a       7.57141576
_cell_length_b       6.596566975487068
_cell_length_c       11.859499654632444
_cell_angle_alpha    56.10713322711195
_cell_angle_beta     90.0
_cell_angle_gamma    90.0

_space_group_name_H-M_alt    "P 1"
_space_group_IT_number       1

loop_
  _space_group_symop_operation_xyz
  'x, y, z'

loop_
  _atom_site_type_symbol
  _atom_site_label
  _atom_site_symmetry_multiplicity
  _atom_site_fract_x
  _atom_site_fract_y
  _atom_site_fract_z
  _atom_site_occupancy
  Sn  Sn1       1.0  0.5931389809688885  0.060397589263665674  0.6920206346671277  1.0000
  Sn  Sn2       1.0  0.8409459607176106  0.2502527920595341  0.9013139835708709  1.0000
  Sn  Sn3       1.0  0.6860293194729553  0.7356994508262644  0.9737528927661936  1.0000
  Sn  Sn4       1.0  0.053273727976078634  0.27038409012559017  0.38257546089676353  1.0000
  P   P1        1.0  0.4274361304415594  0.9968870447691126  0.10147881952859035  1.0000
  P   P2        1.0  0.22880582161106255  0.5699149773223436  0.47777686989495566  1.0000
  P   P3        1.0  0.8242267340257641  0.7070312829068677  0.2326196441581545  1.0000
  P   P4        1.0  0.4075157549298118  0.714600567500338  0.6733635132148648  1.0000
  S   S1        1.0  0.13285728332001767  0.6969884608617916  0.5861464768170379  1.0000
  S   S2        1.0  0.7449672177749443  0.10025128174086806  0.14291200808641066  1.0000
  S   S3        1.0  0.003341056717373281  0.7614169933385975  0.06335308551361671  1.0000
  S   S4        1.0  0.23310866261933663  0.11202026229788546  0.21376252920784494  1.0000
  S   S5        1.0  0.24242275414707115  0.5099973639939837  0.865396728527756  1.0000
  S   S6        1.0  0.4804975515726395  0.5134299467843293  0.5878627313637758  1.0000
  S   S7        1.0  0.833880330090225  0.6530042170009916  0.41143607566740237  1.0000
  S   S8        1.0  0.27436993563057754  0.11770432181180712  0.9423522521990096  1.0000
  S   S9        1.0  0.8949222733123755  0.8572025554975298  0.7204365858931179  1.0000
  S   S10       1.0  0.5983238419018783  0.4878617931748711  0.25385329255135547  1.0000
  S   S11       1.0  0.3968873025759785  0.18385279938785581  0.45721047987160335  1.0000
  S   S12       1.0  0.328416894918357  0.46768086689069527  0.07010227530897994  1.0000
data_image99
_chemical_formula_structural       Sn4P4S12
_chemical_formula_sum              "Sn4 P4 S12"
_cell_length_a       7.57141576
_cell_length_b       6.596566975487068
_cell_length_c       11.859499654632444
_cell_angle_alpha    56.10713322711195
_cell_angle_beta     90.0
_cell_angle_gamma    90.0

_space_group_name_H-M_alt    "P 1"
_space_group_IT_number       1

loop_
  _space_group_symop_operation_xyz
  'x, y, z'

loop_
  _atom_site_type_symbol
  _atom_site_label
  _atom_site_symmetry_multiplicity
  _atom_site_fract_x
  _atom_site_fract_y
  _atom_site_fract_z
  _atom_site_occupancy
  Sn  Sn1       1.0  0.5723597005868641  0.09650911644139937  0.6801896305532058  1.0000
  Sn  Sn2       1.0  0.8857366778010137  0.2273622197971581  0.9036326658402786  1.0000
  Sn  Sn3       1.0  0.6635083624675178  0.6260676282262694  0.9851120934592459  1.0000
  Sn  Sn4       1.0  0.015278579155529031  0.19985310896478883  0.3961089582856321  1.0000
  P   P1        1.0  0.37795702412890225  0.9544807864876903  0.10144981060542867  1.0000
  P   P2        1.0  0.3473041332668068  0.6622717506938981  0.5011534329587285  1.0000
  P   P3        1.0  0.7861022785629738  0.7133778321511494  0.24033550096092365  1.0000
  P   P4        1.0  0.329550038188562  0.7967260971501163  0.6321983012670946  1.0000
  S   S1        1.0  0.12346294462934204  0.666146528318116  0.5910922480593059  1.0000
  S   S2        1.0  0.6836143474009593  0.09218221630483958  0.11269637915324003  1.0000
  S   S3        1.0  0.9942839888494371  0.697301250235052  0.13223521563616997  1.0000
  S   S4        1.0  0.3493071054123425  0.18486642577251972  0.19884399704490718  1.0000
  S   S5        1.0  0.3587898493991754  0.701133182771141  0.8217603827241033  1.0000
  S   S6        1.0  0.5405783878858301  0.6220629369739419  0.6330525867840643  1.0000
  S   S7        1.0  0.9099566893215103  0.6586905714090208  0.4066831507751998  1.0000
  S   S8        1.0  0.2773850389694883  0.18634440375625505  0.9043140245861709  1.0000
  S   S9        1.0  0.8085880538971327  0.9555161852551662  0.5930914551454645  1.0000
  S   S10       1.0  0.6232002007039175  0.45021147095843783  0.29973636300222584  1.0000
  S   S11       1.0  0.3609046237700758  0.19421408864178247  0.4827100701152144  1.0000
  S   S12       1.0  0.3140066954461058  0.5422857479723032  0.09090062199004612  1.0000
data_image100
_chemical_formula_structural       Sn4P4S12
_chemical_formula_sum              "Sn4 P4 S12"
_cell_length_a       7.57141576
_cell_length_b       6.596566975487068
_cell_length_c       11.859499654632444
_cell_angle_alpha    56.10713322711195
_cell_angle_beta     90.0
_cell_angle_gamma    90.0

_space_group_name_H-M_alt    "P 1"
_space_group_IT_number       1

loop_
  _space_group_symop_operation_xyz
  'x, y, z'

loop_
  _atom_site_type_symbol
  _atom_site_label
  _atom_site_symmetry_multiplicity
  _atom_site_fract_x
  _atom_site_fract_y
  _atom_site_fract_z
  _atom_site_occupancy
  Sn  Sn1       1.0  0.5862132717255712  0.18843437341366087  0.6519529581051803  1.0000
  Sn  Sn2       1.0  0.933071214503944  0.20519275471440745  0.924861123329778  1.0000
  Sn  Sn3       1.0  0.6336035847190294  0.5933619526388328  0.9661365955849011  1.0000
  Sn  Sn4       1.0  0.9555739368580921  0.24081776345219044  0.35071867813933505  1.0000
  P   P1        1.0  0.3975621638957054  0.9395494434685419  0.09211619582004614  1.0000
  P   P2        1.0  0.4664753132758836  0.7429015996101999  0.48364266839226333  1.0000
  P   P3        1.0  0.8319684072981812  0.7152403910028843  0.28046168135815913  1.0000
  P   P4        1.0  0.30802505324248963  0.7964799046466724  0.6357819387082627  1.0000
  S   S1        1.0  0.20253347563984914  0.5145327945637457  0.6603175979918733  1.0000
  S   S2        1.0  0.6209757844098784  0.058529776381344156  0.13387824691837438  1.0000
  S   S3        1.0  0.9666501388121899  0.7471571902497103  0.10712249916629976  1.0000
  S   S4        1.0  0.22744943546977212  0.15293418298294306  0.18523064552628493  1.0000
  S   S5        1.0  0.32608609753026674  0.8498197623359873  0.7837265398386805  1.0000
  S   S6        1.0  0.6434248634489412  0.6382069997340956  0.6466681748343013  1.0000
  S   S7        1.0  0.9951745757570211  0.5749397429048201  0.44562780868981094  1.0000
  S   S8        1.0  0.27606680688130125  0.18914651005916394  0.9091879590682457  1.0000
  S   S9        1.0  0.8053618322394442  0.830320230422656  0.6644700784422819  1.0000
  S   S10       1.0  0.6227217712206536  0.4337537367861515  0.3543699636102582  1.0000
  S   S11       1.0  0.26163857141781155  0.16819427166698175  0.5069583146288652  1.0000
  S   S12       1.0  0.34776673881323505  0.44338087956165284  0.11879814113572884  1.0000
data_image101
_chemical_formula_structural       Sn4P4S12
_chemical_formula_sum              "Sn4 P4 S12"
_cell_length_a       7.57141576
_cell_length_b       6.596566975487068
_cell_length_c       11.859499654632444
_cell_angle_alpha    56.10713322711195
_cell_angle_beta     90.0
_cell_angle_gamma    90.0

_space_group_name_H-M_alt    "P 1"
_space_group_IT_number       1

loop_
  _space_group_symop_operation_xyz
  'x, y, z'

loop_
  _atom_site_type_symbol
  _atom_site_label
  _atom_site_symmetry_multiplicity
  _atom_site_fract_x
  _atom_site_fract_y
  _atom_site_fract_z
  _atom_site_occupancy
  Sn  Sn1       1.0  0.5919578569132534  0.2212533981440128  0.6190528373599551  1.0000
  Sn  Sn2       1.0  0.9599525053669274  0.14915058245183133  0.9579279851437879  1.0000
  Sn  Sn3       1.0  0.6249966287509872  0.6028973395636985  0.9794428726944655  1.0000
  Sn  Sn4       1.0  0.9505527416454392  0.22550656232113223  0.33458309894000926  1.0000
  P   P1        1.0  0.3803181473201688  0.8626487844164904  0.14498326485267932  1.0000
  P   P2        1.0  0.49712647279633015  0.8691539277145522  0.476380261718498  1.0000
  P   P3        1.0  0.8412375942063903  0.6715277810553147  0.297228077420395  1.0000
  P   P4        1.0  0.31592473526877063  0.8546630067613816  0.5904423857807946  1.0000
  S   S1        1.0  0.17980420205142078  0.5435619093386179  0.6562347415071047  1.0000
  S   S2        1.0  0.6734653313175156  0.01544738479898311  0.14547558653015716  1.0000
  S   S3        1.0  0.9236552853106468  0.6777961853946861  0.13051821795672425  1.0000
  S   S4        1.0  0.1808739213276127  0.09587401387299153  0.1497267886089357  1.0000
  S   S5        1.0  0.26572645227155955  0.9496901477025291  0.7582401557444289  1.0000
  S   S6        1.0  0.6643390845805206  0.6819830823779154  0.6596638589726636  1.0000
  S   S7        1.0  0.9933532648829224  0.6380126117765035  0.4434829912286826  1.0000
  S   S8        1.0  0.36608482320820745  0.12493169638059165  0.9368665989187424  1.0000
  S   S9        1.0  0.8071808153957638  0.9217645561039977  0.6769465653768221  1.0000
  S   S10       1.0  0.6435289613058501  0.4002817661532805  0.3661255256974951  1.0000
  S   S11       1.0  0.20463324494301935  0.15787500590500225  0.4978381601463572  1.0000
  S   S12       1.0  0.29261413768899014  0.4362056422447211  0.08708715834771574  1.0000
data_image102
_chemical_formula_structural       Sn4P4S12
_chemical_formula_sum              "Sn4 P4 S12"
_cell_length_a       7.57141576
_cell_length_b       6.596566975487068
_cell_length_c       11.859499654632444
_cell_angle_alpha    56.10713322711195
_cell_angle_beta     90.0
_cell_angle_gamma    90.0

_space_group_name_H-M_alt    "P 1"
_space_group_IT_number       1

loop_
  _space_group_symop_operation_xyz
  'x, y, z'

loop_
  _atom_site_type_symbol
  _atom_site_label
  _atom_site_symmetry_multiplicity
  _atom_site_fract_x
  _atom_site_fract_y
  _atom_site_fract_z
  _atom_site_occupancy
  Sn  Sn1       1.0  0.54205089935  0.25876988398531875  0.5924413449567161  1.0000
  Sn  Sn2       1.0  0.9688835200718537  0.1403939639754308  0.9426159455556194  1.0000
  Sn  Sn3       1.0  0.6061967318365062  0.6375152674325115  0.006031321294621659  1.0000
  Sn  Sn4       1.0  0.9451972211024832  0.11405846279405896  0.3346040882642356  1.0000
  P   P1        1.0  0.49692550049658724  0.8656564672280683  0.15664586644855574  1.0000
  P   P2        1.0  0.497085872961037  0.9876685967962167  0.477745724655178  1.0000
  P   P3        1.0  0.8373967951493109  0.610568971312735  0.27087271328765494  1.0000
  P   P4        1.0  0.26072019312447214  0.8174595967956472  0.6140757653166284  1.0000
  S   S1        1.0  0.19516507016588935  0.48310605175782273  0.7044678325273509  1.0000
  S   S2        1.0  0.7039408026980801  0.02188681238156187  0.2078931297272932  1.0000
  S   S3        1.0  0.9338789661641438  0.707312182509553  0.06885727156755214  1.0000
  S   S4        1.0  0.24709164316441842  0.18833852637900272  0.2002070840936445  1.0000
  S   S5        1.0  0.30412870028848  0.850819928004791  0.7960334120789815  1.0000
  S   S6        1.0  0.6291551119385652  0.6914067082995179  0.6336908078260275  1.0000
  S   S7        1.0  0.9660935812954976  0.5874209233086704  0.41334746584425885  1.0000
  S   S8        1.0  0.5399482820714263  0.0640338291512117  0.928382051764356  1.0000
  S   S9        1.0  0.795336668523983  0.8424900091615792  0.7067472663778633  1.0000
  S   S10       1.0  0.5362145039041297  0.4959008219229325  0.30941386567588514  1.0000
  S   S11       1.0  0.23205642875791843  0.2904001417820592  0.5145993989230001  1.0000
  S   S12       1.0  0.2980850325428033  0.5705719611123061  0.06927182710825797  1.0000
data_image103
_chemical_formula_structural       Sn4P4S12
_chemical_formula_sum              "Sn4 P4 S12"
_cell_length_a       7.57141576
_cell_length_b       6.596566975487068
_cell_length_c       11.859499654632444
_cell_angle_alpha    56.10713322711195
_cell_angle_beta     90.0
_cell_angle_gamma    90.0

_space_group_name_H-M_alt    "P 1"
_space_group_IT_number       1

loop_
  _space_group_symop_operation_xyz
  'x, y, z'

loop_
  _atom_site_type_symbol
  _atom_site_label
  _atom_site_symmetry_multiplicity
  _atom_site_fract_x
  _atom_site_fract_y
  _atom_site_fract_z
  _atom_site_occupancy
  Sn  Sn1       1.0  0.4933916665315614  0.2841339802050926  0.5899827671735146  1.0000
  Sn  Sn2       1.0  0.9815423884519976  0.25071438411630953  0.9352456670520435  1.0000
  Sn  Sn3       1.0  0.5973165445589157  0.6011311757127863  0.9980432140433984  1.0000
  Sn  Sn4       1.0  0.9392280998668817  0.07761492324413724  0.35248029564785693  1.0000
  P   P1        1.0  0.43630890126830796  0.12692167966296336  0.08346256040255437  1.0000
  P   P2        1.0  0.4108199313012092  0.9222376312808964  0.533110851339671  1.0000
  P   P3        1.0  0.8639423096943412  0.663455167615216  0.2042997131036843  1.0000
  P   P4        1.0  0.1920546339413372  0.7391727665745487  0.691671261517496  1.0000
  S   S1        1.0  0.1680723492194094  0.41066331177607274  0.7173575418615565  1.0000
  S   S2        1.0  0.7814472998813272  0.980266413082924  0.16194967079884803  1.0000
  S   S3        1.0  0.963512563977951  0.6932276196395457  0.0315544078010606  1.0000
  S   S4        1.0  0.33463617243790544  0.15709049483453535  0.239059106320738  1.0000
  S   S5        1.0  0.3832766325766449  0.9003821006766677  0.7897895814498344  1.0000
  S   S6        1.0  0.5948315466835099  0.6365058325285989  0.627613871012675  1.0000
  S   S7        1.0  0.060207882552213654  0.5567009115580859  0.3614034127537201  1.0000
  S   S8        1.0  0.661498843016078  0.11433274129944793  0.9228405486862984  1.0000
  S   S9        1.0  0.7566386949461712  0.7240777770873186  0.7343175984229555  1.0000
  S   S10       1.0  0.6511635989015583  0.41471062933257363  0.2889221861051219  1.0000
  S   S11       1.0  0.12367574139262491  0.2528560923542902  0.5990409378816786  1.0000
  S   S12       1.0  0.2741994799598504  0.5531430589286794  0.08618202590830171  1.0000
data_image104
_chemical_formula_structural       Sn4P4S12
_chemical_formula_sum              "Sn4 P4 S12"
_cell_length_a       7.57141576
_cell_length_b       6.596566975487068
_cell_length_c       11.859499654632444
_cell_angle_alpha    56.10713322711195
_cell_angle_beta     90.0
_cell_angle_gamma    90.0

_space_group_name_H-M_alt    "P 1"
_space_group_IT_number       1

loop_
  _space_group_symop_operation_xyz
  'x, y, z'

loop_
  _atom_site_type_symbol
  _atom_site_label
  _atom_site_symmetry_multiplicity
  _atom_site_fract_x
  _atom_site_fract_y
  _atom_site_fract_z
  _atom_site_occupancy
  Sn  Sn1       1.0  0.4624818646140365  0.32070782525861685  0.5566584470154909  1.0000
  Sn  Sn2       1.0  0.014162025811401247  0.324772604253204  0.9455779510087089  1.0000
  Sn  Sn3       1.0  0.591906010886773  0.6061605767507645  0.9655862992593335  1.0000
  Sn  Sn4       1.0  0.0041906986626219014  0.007559772986208238  0.40095285621416143  1.0000
  P   P1        1.0  0.4434790113624053  0.09061634824287515  0.0665291640005114  1.0000
  P   P2        1.0  0.3340770122078332  0.9915373622930935  0.5131083574570823  1.0000
  P   P3        1.0  0.901028745030899  0.672204991104271  0.20939090944537952  1.0000
  P   P4        1.0  0.19811503870775965  0.7968958821733801  0.7362413122328264  1.0000
  S   S1        1.0  0.1784466902553048  0.35715050652390223  0.6757238980656556  1.0000
  S   S2        1.0  0.7829090605033239  0.8646891210183534  0.2770802800502971  1.0000
  S   S3        1.0  0.9065690759375217  0.8821439211392821  0.9950857857181548  1.0000
  S   S4        1.0  0.3162100838923422  0.06184764235765858  0.24687525480377331  1.0000
  S   S5        1.0  0.32581739657735853  0.8390459110907967  0.8701825372003817  1.0000
  S   S6        1.0  0.5148968333393129  0.7131134137860029  0.5812213440767409  1.0000
  S   S7        1.0  0.17173840861162826  0.5876663292563145  0.25056169229343433  1.0000
  S   S8        1.0  0.594638636372167  0.14947240802959616  0.9052450256029346  1.0000
  S   S9        1.0  0.8259664612073659  0.7267164500659798  0.8008417031072073  1.0000
  S   S10       1.0  0.7301920777242253  0.40481734670845915  0.23163927730727019  1.0000
  S   S11       1.0  0.06560018839175304  0.2043518084010656  0.596734088450243  1.0000
  S   S12       1.0  0.13748161144143567  0.33670998436706717  0.14262904304256319  1.0000
data_image105
_chemical_formula_structural       Sn4P4S12
_chemical_formula_sum              "Sn4 P4 S12"
_cell_length_a       7.57141576
_cell_length_b       6.596566975487068
_cell_length_c       11.859499654632444
_cell_angle_alpha    56.10713322711195
_cell_angle_beta     90.0
_cell_angle_gamma    90.0

_space_group_name_H-M_alt    "P 1"
_space_group_IT_number       1

loop_
  _space_group_symop_operation_xyz
  'x, y, z'

loop_
  _atom_site_type_symbol
  _atom_site_label
  _atom_site_symmetry_multiplicity
  _atom_site_fract_x
  _atom_site_fract_y
  _atom_site_fract_z
  _atom_site_occupancy
  Sn  Sn1       1.0  0.4996527359479178  0.36754538342316767  0.5589249890212292  1.0000
  Sn  Sn2       1.0  0.03353026750039856  0.3503265787269345  0.9367286309793349  1.0000
  Sn  Sn3       1.0  0.5779715332523077  0.6398716267491871  0.9817704611996154  1.0000
  Sn  Sn4       1.0  0.03125552711870345  0.9611236933181231  0.40961662940047733  1.0000
  P   P1        1.0  0.34503835084996454  0.14927074942409937  0.03554537484247151  1.0000
  P   P2        1.0  0.2886484558899548  0.9017161513921998  0.5529240081181936  1.0000
  P   P3        1.0  0.8891802190863891  0.6561733971855757  0.20735324066687716  1.0000
  P   P4        1.0  0.15533191848669803  0.8189554357188906  0.7417306772914222  1.0000
  S   S1        1.0  0.1267567742946385  0.4901156769288435  0.570374196698555  1.0000
  S   S2        1.0  0.765650597558654  0.7378277976808857  0.33148665692242263  1.0000
  S   S3        1.0  0.9009037624613104  0.9363662690362944  0.0012147104604461093  1.0000
  S   S4        1.0  0.3374384871826726  0.9022341889753515  0.22303404877837255  1.0000
  S   S5        1.0  0.2494542932229024  0.8199046311645122  0.8932517661210567  1.0000
  S   S6        1.0  0.5428440564905384  0.7889023151311051  0.5716358324277343  1.0000
  S   S7        1.0  0.13438096212271655  0.5436418026677391  0.26788177670787144  1.0000
  S   S8        1.0  0.667493375853037  0.1905555702004823  0.8449403051667904  1.0000
  S   S9        1.0  0.8053105174327593  0.6501916485762982  0.8104463866761018  1.0000
  S   S10       1.0  0.6722470695522594  0.4430935659204903  0.21257627033894244  1.0000
  S   S11       1.0  0.04682451995909779  0.18593424131731506  0.5929200341981986  1.0000
  S   S12       1.0  0.23308663702950327  0.24293532309587396  0.17328761134102888  1.0000
data_image106
_chemical_formula_structural       Sn4P4S12
_chemical_formula_sum              "Sn4 P4 S12"
_cell_length_a       7.57141576
_cell_length_b       6.596566975487068
_cell_length_c       11.859499654632444
_cell_angle_alpha    56.10713322711195
_cell_angle_beta     90.0
_cell_angle_gamma    90.0

_space_group_name_H-M_alt    "P 1"
_space_group_IT_number       1

loop_
  _space_group_symop_operation_xyz
  'x, y, z'

loop_
  _atom_site_type_symbol
  _atom_site_label
  _atom_site_symmetry_multiplicity
  _atom_site_fract_x
  _atom_site_fract_y
  _atom_site_fract_z
  _atom_site_occupancy
  Sn  Sn1       1.0  0.537115786140723  0.38137343164937065  0.5923128708737015  1.0000
  Sn  Sn2       1.0  0.061884656300874585  0.36459151029327375  0.9569395147055095  1.0000
  Sn  Sn3       1.0  0.5623405489806204  0.7832264126747408  0.9227526197684632  1.0000
  Sn  Sn4       1.0  0.9949150033260583  0.010632190606586458  0.33648974652707714  1.0000
  P   P1        1.0  0.3574511657136095  0.0838387513607116  0.05159327980657863  1.0000
  P   P2        1.0  0.3685744859895719  0.9798904738068833  0.5212364502598272  1.0000
  P   P3        1.0  0.7829942891952169  0.5568620914076411  0.233660609096221  1.0000
  P   P4        1.0  0.14600536396672062  0.8498688403833256  0.6892091394636002  1.0000
  S   S1        1.0  0.22864736233110605  0.6114051599044137  0.6078835812084965  1.0000
  S   S2        1.0  0.7400501202562143  0.6836851912912989  0.36289251279115786  1.0000
  S   S3        1.0  0.8371720951823656  0.7406107090172878  0.044445812814467675  1.0000
  S   S4        1.0  0.3086310583557544  0.7642129727627506  0.1985274447676231  1.0000
  S   S5        1.0  0.23186489165278984  0.722857721014431  0.9148398373314546  1.0000
  S   S6        1.0  0.6325572781612221  0.7322415319686288  0.5941026875940545  1.0000
  S   S7        1.0  0.05915069802821815  0.44006875916813354  0.284406712362119  1.0000
  S   S8        1.0  0.5776049489769981  0.1366603394643765  0.9473119280644987  1.0000
  S   S9        1.0  0.7257646187870758  0.6564295540050851  0.8276464477724317  1.0000
  S   S10       1.0  0.6793611305994112  0.2611036935389458  0.24603507018889892  1.0000
  S   S11       1.0  0.9940288188377481  0.1343026418348039  0.626107632048108  1.0000
  S   S12       1.0  0.43939864628558656  0.2802016029155294  0.17194703845264692  1.0000
data_image107
_chemical_formula_structural       Sn4P4S12
_chemical_formula_sum              "Sn4 P4 S12"
_cell_length_a       7.57141576
_cell_length_b       6.596566975487068
_cell_length_c       11.859499654632444
_cell_angle_alpha    56.10713322711195
_cell_angle_beta     90.0
_cell_angle_gamma    90.0

_space_group_name_H-M_alt    "P 1"
_space_group_IT_number       1

loop_
  _space_group_symop_operation_xyz
  'x, y, z'

loop_
  _atom_site_type_symbol
  _atom_site_label
  _atom_site_symmetry_multiplicity
  _atom_site_fract_x
  _atom_site_fract_y
  _atom_site_fract_z
  _atom_site_occupancy
  Sn  Sn1       1.0  0.6053296746416917  0.3889776457519676  0.581650783007564  1.0000
  Sn  Sn2       1.0  0.05765044332999203  0.3563057602306119  0.996440792416677  1.0000
  Sn  Sn3       1.0  0.49493574619103176  0.8848011453314599  0.903520303074175  1.0000
  Sn  Sn4       1.0  0.9896048939729586  0.9313759356391376  0.3423877197273103  1.0000
  P   P1        1.0  0.34641781017317874  0.04126746000820269  0.11572985218768529  1.0000
  P   P2        1.0  0.4189971034984965  0.9795191059665458  0.529304378600775  1.0000
  P   P3        1.0  0.7945483871239315  0.46010328795182154  0.23782109181029779  1.0000
  P   P4        1.0  0.03855804480506215  0.8279148582395357  0.7007422443293381  1.0000
  S   S1        1.0  0.27992384453271746  0.6626176589824335  0.648858899714963  1.0000
  S   S2        1.0  0.6734779213032678  0.650891278377136  0.2898418761917081  1.0000
  S   S3        1.0  0.8268390297159618  0.7208295726278464  0.030032752452629752  1.0000
  S   S4        1.0  0.33229920387315187  0.6777012037797138  0.21780294642383666  1.0000
  S   S5        1.0  0.14061727716276612  0.8323670105295391  0.866780581871039  1.0000
  S   S6        1.0  0.7077988976913849  0.9043868363077598  0.5621569935267599  1.0000
  S   S7        1.0  0.05158022227283743  0.31961543974243845  0.3433396444365307  1.0000
  S   S8        1.0  0.5606294944901318  0.18438510443643663  0.9657549758639395  1.0000
  S   S9        1.0  0.8573936048383755  0.5364306761246738  0.813101445509588  1.0000
  S   S10       1.0  0.6920484424290907  0.20168860156928792  0.22406414269722785  1.0000
  S   S11       1.0  0.036023330863986014  0.19138155522933298  0.5957837659244988  1.0000
  S   S12       1.0  0.38328907466378914  0.36158960186137906  0.12458431500941325  1.0000
data_image108
_chemical_formula_structural       Sn4P4S12
_chemical_formula_sum              "Sn4 P4 S12"
_cell_length_a       7.57141576
_cell_length_b       6.596566975487068
_cell_length_c       11.859499654632444
_cell_angle_alpha    56.10713322711195
_cell_angle_beta     90.0
_cell_angle_gamma    90.0

_space_group_name_H-M_alt    "P 1"
_space_group_IT_number       1

loop_
  _space_group_symop_operation_xyz
  'x, y, z'

loop_
  _atom_site_type_symbol
  _atom_site_label
  _atom_site_symmetry_multiplicity
  _atom_site_fract_x
  _atom_site_fract_y
  _atom_site_fract_z
  _atom_site_occupancy
  Sn  Sn1       1.0  0.7174785353949997  0.41699227482535695  0.5492162480578645  1.0000
  Sn  Sn2       1.0  0.978561889142981  0.3373756802641772  0.019376615638170815  1.0000
  Sn  Sn3       1.0  0.47243223242248644  0.8229373467253498  0.9468672888653737  1.0000
  Sn  Sn4       1.0  0.989451021092555  0.8682907329850666  0.32921624891667167  1.0000
  P   P1        1.0  0.33782470752633326  0.14882874394858156  0.05179724414124064  1.0000
  P   P2        1.0  0.42644526275585337  0.03708855561037083  0.5227784271283255  1.0000
  P   P3        1.0  0.8483200782926806  0.5003984358406369  0.23871685850018123  1.0000
  P   P4        1.0  0.0641788868079765  0.8672355992700966  0.6883202671145902  1.0000
  S   S1        1.0  0.33235309233979526  0.6996333389773619  0.6658288815995447  1.0000
  S   S2        1.0  0.64354481596623  0.6186985956241727  0.3126773244199833  1.0000
  S   S3        1.0  0.8720815651313935  0.7586704008121965  0.04853008741148737  1.0000
  S   S4        1.0  0.24251893197452926  0.7955660252076077  0.22811546392025267  1.0000
  S   S5        1.0  0.13405986825566785  0.7550278224476638  0.8834654654948662  1.0000
  S   S6        1.0  0.6450957458365696  0.8433476150857078  0.521136882210378  1.0000
  S   S7        1.0  0.05126011383446172  0.28498430708373695  0.3381986335997894  1.0000
  S   S8        1.0  0.5920490701758514  0.15976171297543673  0.9917152745782003  1.0000
  S   S9        1.0  0.8810156018529914  0.616311363276853  0.726185635299684  1.0000
  S   S10       1.0  0.62635669315279  0.26338827617044747  0.2387585115215345  1.0000
  S   S11       1.0  0.9976154567148297  0.27708309589658753  0.5767573879916921  1.0000
  S   S12       1.0  0.4114971743818725  0.36557528448850757  0.15073965539075052  1.0000
data_image109
_chemical_formula_structural       Sn4P4S12
_chemical_formula_sum              "Sn4 P4 S12"
_cell_length_a       7.57141576
_cell_length_b       6.596566975487068
_cell_length_c       11.859499654632444
_cell_angle_alpha    56.10713322711195
_cell_angle_beta     90.0
_cell_angle_gamma    90.0

_space_group_name_H-M_alt    "P 1"
_space_group_IT_number       1

loop_
  _space_group_symop_operation_xyz
  'x, y, z'

loop_
  _atom_site_type_symbol
  _atom_site_label
  _atom_site_symmetry_multiplicity
  _atom_site_fract_x
  _atom_site_fract_y
  _atom_site_fract_z
  _atom_site_occupancy
  Sn  Sn1       1.0  0.7202032593787493  0.3396419915546951  0.6008923305096286  1.0000
  Sn  Sn2       1.0  0.9107202783924405  0.3536096965851083  0.021253920764982347  1.0000
  Sn  Sn3       1.0  0.49743395377226807  0.8690542132996645  0.8966645382453267  1.0000
  Sn  Sn4       1.0  0.9925114478709166  0.8193696107550635  0.3034710329722288  1.0000
  P   P1        1.0  0.3269054327462653  0.1689395581066813  0.053556282704931735  1.0000
  P   P2        1.0  0.4488416039683126  0.9847405142908816  0.518373164939248  1.0000
  P   P3        1.0  0.8375592322429333  0.5677329067895462  0.19450186578979384  1.0000
  P   P4        1.0  0.11392162053734936  0.8316148485524218  0.7349166315037694  1.0000
  S   S1        1.0  0.31084602785050386  0.6775673213160767  0.6376217160532777  1.0000
  S   S2        1.0  0.6074495948872919  0.5673679966314648  0.3182318644509128  1.0000
  S   S3        1.0  0.9019266596758706  0.9002113834585099  0.013506265684537251  1.0000
  S   S4        1.0  0.33736012166265233  0.8347721679929465  0.24933451134800722  1.0000
  S   S5        1.0  0.19569414482216996  0.7024423980376078  0.9367555222184258  1.0000
  S   S6        1.0  0.6784768437220492  0.8957054648386588  0.464236775517241  1.0000
  S   S7        1.0  0.05400112004388147  0.294014075643413  0.3268851618121321  1.0000
  S   S8        1.0  0.5762928882059652  0.20075104534699806  0.9864815045744009  1.0000
  S   S9        1.0  0.8203214287578847  0.7748285395196783  0.7559110215315437  1.0000
  S   S10       1.0  0.5758900881776847  0.22893846534629503  0.23582524514232284  1.0000
  S   S11       1.0  0.12664332320315486  0.19796712918106651  0.6677280701382217  1.0000
  S   S12       1.0  0.33231504049885174  0.3938100639545095  0.1750685091886972  1.0000
data_image110
_chemical_formula_structural       Sn4P4S12
_chemical_formula_sum              "Sn4 P4 S12"
_cell_length_a       7.57141576
_cell_length_b       6.596566975487068
_cell_length_c       11.859499654632444
_cell_angle_alpha    56.10713322711195
_cell_angle_beta     90.0
_cell_angle_gamma    90.0

_space_group_name_H-M_alt    "P 1"
_space_group_IT_number       1

loop_
  _space_group_symop_operation_xyz
  'x, y, z'

loop_
  _atom_site_type_symbol
  _atom_site_label
  _atom_site_symmetry_multiplicity
  _atom_site_fract_x
  _atom_site_fract_y
  _atom_site_fract_z
  _atom_site_occupancy
  Sn  Sn1       1.0  0.7546526335660575  0.31419229679870386  0.6070977042658612  1.0000
  Sn  Sn2       1.0  0.8280906860534684  0.3838366015170882  0.017124280598269953  1.0000
  Sn  Sn3       1.0  0.5414177143018591  0.9574838995025919  0.8393516036880081  1.0000
  Sn  Sn4       1.0  0.009673568775162972  0.8383442998683902  0.27013525781004044  1.0000
  P   P1        1.0  0.28207250855063304  0.1460327644694414  0.11083168033542654  1.0000
  P   P2        1.0  0.4582158730669142  0.012490238645463947  0.5301579310285559  1.0000
  P   P3        1.0  0.8672143541532678  0.5689741149176107  0.1823484462663592  1.0000
  P   P4        1.0  0.13430554754040258  0.814803868426808  0.7536296427337371  1.0000
  S   S1        1.0  0.1939317195083139  0.6874690080316055  0.6168929709668078  1.0000
  S   S2        1.0  0.6914484704865514  0.5532274396517827  0.33437832263283646  1.0000
  S   S3        1.0  0.8819187451729371  0.972578832253798  0.002911744096788788  1.0000
  S   S4        1.0  0.3372035640616342  0.8111232562013068  0.28611806023548175  1.0000
  S   S5        1.0  0.17042341455075985  0.6601007386511026  0.9432341717314571  1.0000
  S   S6        1.0  0.6612576323132229  0.7223812029482024  0.5641100513878029  1.0000
  S   S7        1.0  0.006153843223085431  0.3429900602200825  0.3520384934419112  1.0000
  S   S8        1.0  0.4572883975152868  0.23421466215424958  0.9616117957021738  1.0000
  S   S9        1.0  0.8983760563771055  0.7178616873594541  0.6786597842168034  1.0000
  S   S10       1.0  0.6308379529128672  0.1950347113893608  0.2938180177387584  1.0000
  S   S11       1.0  0.16624673156146716  0.191335618329743  0.6849832144893993  1.0000
  S   S12       1.0  0.3623009650396041  0.169384524033912  0.3061630816503149  1.0000
data_image111
_chemical_formula_structural       Sn4P4S12
_chemical_formula_sum              "Sn4 P4 S12"
_cell_length_a       7.57141576
_cell_length_b       6.596566975487068
_cell_length_c       11.859499654632444
_cell_angle_alpha    56.10713322711195
_cell_angle_beta     90.0
_cell_angle_gamma    90.0

_space_group_name_H-M_alt    "P 1"
_space_group_IT_number       1

loop_
  _space_group_symop_operation_xyz
  'x, y, z'

loop_
  _atom_site_type_symbol
  _atom_site_label
  _atom_site_symmetry_multiplicity
  _atom_site_fract_x
  _atom_site_fract_y
  _atom_site_fract_z
  _atom_site_occupancy
  Sn  Sn1       1.0  0.8087992439288363  0.31085770854015937  0.6046616716476996  1.0000
  Sn  Sn2       1.0  0.7856391520771594  0.3881876645733111  0.00020886730763497276  1.0000
  Sn  Sn3       1.0  0.5590457624100649  0.9372712740646143  0.8833800503824981  1.0000
  Sn  Sn4       1.0  0.006734226695048433  0.8028843941211126  0.3262592150472641  1.0000
  P   P1        1.0  0.4075557747693548  0.20340053010683673  0.06686004020417777  1.0000
  P   P2        1.0  0.5561289407461958  0.04404528530597718  0.49798473138544647  1.0000
  P   P3        1.0  0.7552861999593405  0.490882568915462  0.21133744319132203  1.0000
  P   P4        1.0  0.12813041886322635  0.8448166482561108  0.7185597615262794  1.0000
  S   S1        1.0  0.22849538343415543  0.769811192952131  0.5689966060244335  1.0000
  S   S2        1.0  0.6202414423608174  0.5689037644511219  0.3508469402922258  1.0000
  S   S3        1.0  0.8736094339709932  0.9483907634541233  0.06349895186834695  1.0000
  S   S4        1.0  0.36406232525028764  0.8896644100359092  0.22102278943527573  1.0000
  S   S5        1.0  0.2409358215479364  0.6389460870163749  0.8968790836403855  1.0000
  S   S6        1.0  0.5215447906850761  0.6960252097411789  0.5819889003185951  1.0000
  S   S7        1.0  0.9804178049266276  0.3915073052746503  0.3138906696685983  1.0000
  S   S8        1.0  0.4130830964401737  0.2592053563715374  0.8697404324078278  1.0000
  S   S9        1.0  0.9303397071624991  0.7439325123137115  0.6533977104554409  1.0000
  S   S10       1.0  0.6158910022809061  0.230081699475031  0.2119242066901148  1.0000
  S   S11       1.0  0.1730781761174626  0.19141843795255276  0.6572440592247266  1.0000
  S   S12       1.0  0.292687884067113  0.09419286988781053  0.41829088604904174  1.0000
data_image112
_chemical_formula_structural       Sn4P4S12
_chemical_formula_sum              "Sn4 P4 S12"
_cell_length_a       7.57141576
_cell_length_b       6.596566975487068
_cell_length_c       11.859499654632444
_cell_angle_alpha    56.10713322711195
_cell_angle_beta     90.0
_cell_angle_gamma    90.0

_space_group_name_H-M_alt    "P 1"
_space_group_IT_number       1

loop_
  _space_group_symop_operation_xyz
  'x, y, z'

loop_
  _atom_site_type_symbol
  _atom_site_label
  _atom_site_symmetry_multiplicity
  _atom_site_fract_x
  _atom_site_fract_y
  _atom_site_fract_z
  _atom_site_occupancy
  Sn  Sn1       1.0  0.8758703541408837  0.34642676900741165  0.5640692036067105  1.0000
  Sn  Sn2       1.0  0.7691921337261427  0.3742678234303918  0.9960738166838351  1.0000
  Sn  Sn3       1.0  0.5485023223237264  0.8349778825759405  0.930931072375597  1.0000
  Sn  Sn4       1.0  0.048807777117590226  0.8298512159390891  0.3408522866253197  1.0000
  P   P1        1.0  0.45134618566122864  0.23586500385168913  0.01896680427895566  1.0000
  P   P2        1.0  0.6488257325058215  0.07034475837852905  0.49935836831156966  1.0000
  P   P3        1.0  0.6601006901189382  0.5099086870657629  0.2642589313543506  1.0000
  P   P4        1.0  0.12431343751809802  0.8968938445608148  0.7108353950061457  1.0000
  S   S1        1.0  0.23683643697339463  0.7531912505782767  0.58601750257579  1.0000
  S   S2        1.0  0.5239131460838217  0.5275191612866516  0.3883493620643082  1.0000
  S   S3        1.0  0.8059768574255648  0.8346332638699432  0.07077385470875941  1.0000
  S   S4        1.0  0.22574103307952237  0.014342139039368514  0.09087923862359605  1.0000
  S   S5        1.0  0.2025631305004102  0.7096566963948958  0.9103153303238947  1.0000
  S   S6        1.0  0.6167042709568344  0.7306543134281409  0.5208664265915752  1.0000
  S   S7        1.0  0.9129024129952124  0.37738774012809406  0.3572325640159782  1.0000
  S   S8        1.0  0.39382998454395524  0.38251048832552614  0.8370776075093225  1.0000
  S   S9        1.0  0.9153949824315092  0.6066029498449863  0.7778732196308993  1.0000
  S   S10       1.0  0.6239833061429227  0.16277757518218217  0.25874845752604725  1.0000
  S   S11       1.0  0.24320864374768592  0.26751653286317834  0.553272570279905  1.0000
  S   S12       1.0  0.21227439292081374  0.12801739476148805  0.3932038305650991  1.0000
data_image113
_chemical_formula_structural       Sn4P4S12
_chemical_formula_sum              "Sn4 P4 S12"
_cell_length_a       7.57141576
_cell_length_b       6.596566975487068
_cell_length_c       11.859499654632444
_cell_angle_alpha    56.10713322711195
_cell_angle_beta     90.0
_cell_angle_gamma    90.0

_space_group_name_H-M_alt    "P 1"
_space_group_IT_number       1

loop_
  _space_group_symop_operation_xyz
  'x, y, z'

loop_
  _atom_site_type_symbol
  _atom_site_label
  _atom_site_symmetry_multiplicity
  _atom_site_fract_x
  _atom_site_fract_y
  _atom_site_fract_z
  _atom_site_occupancy
  Sn  Sn1       1.0  0.8786550674846634  0.3770985340066686  0.5832522965418222  1.0000
  Sn  Sn2       1.0  0.8026605812984089  0.3112985155475212  0.07307446494686977  1.0000
  Sn  Sn3       1.0  0.564202798562977  0.8679163358381337  0.9037487181135132  1.0000
  Sn  Sn4       1.0  0.07011370622537058  0.9241136367372418  0.3300907697445598  1.0000
  P   P1        1.0  0.3408568274678636  0.24578901503833536  0.9528988229041889  1.0000
  P   P2        1.0  0.6664724140867448  0.22826174861214343  0.4285091994982041  1.0000
  P   P3        1.0  0.5767003516061189  0.4343487789267517  0.21275921458022978  1.0000
  P   P4        1.0  0.13058183929516554  0.8394408040592509  0.7297321013502271  1.0000
  S   S1        1.0  0.24166475828684342  0.709407219117276  0.5776955747215281  1.0000
  S   S2        1.0  0.4279462314303282  0.5017796604850429  0.3365465243415749  1.0000
  S   S3        1.0  0.8079017042221075  0.7048848269717223  0.11346726446237478  1.0000
  S   S4        1.0  0.14416825170362854  0.9823443890254012  0.08485505280217498  1.0000
  S   S5        1.0  0.15052974831325086  0.7521136605204546  0.9195770119213854  1.0000
  S   S6        1.0  0.6884936036267353  0.807223463863371  0.5007384986400605  1.0000
  S   S7        1.0  0.9133297475287923  0.3297786984482236  0.3601037044102118  1.0000
  S   S8        1.0  0.487187345417577  0.38184969747199127  0.7792675018185191  1.0000
  S   S9        1.0  0.8918405242115073  0.629556074795847  0.7676304672148448  1.0000
  S   S10       1.0  0.537168484023218  0.11467136298805147  0.22293169451191774  1.0000
  S   S11       1.0  0.18767446537308616  0.1809921964279142  0.6009622687608003  1.0000
  S   S12       1.0  0.3340593421217013  0.015604951525456594  0.42727272375046343  1.0000
data_image114
_chemical_formula_structural       Sn4P4S12
_chemical_formula_sum              "Sn4 P4 S12"
_cell_length_a       7.57141576
_cell_length_b       6.596566975487068
_cell_length_c       11.859499654632444
_cell_angle_alpha    56.10713322711195
_cell_angle_beta     90.0
_cell_angle_gamma    90.0

_space_group_name_H-M_alt    "P 1"
_space_group_IT_number       1

loop_
  _space_group_symop_operation_xyz
  'x, y, z'

loop_
  _atom_site_type_symbol
  _atom_site_label
  _atom_site_symmetry_multiplicity
  _atom_site_fract_x
  _atom_site_fract_y
  _atom_site_fract_z
  _atom_site_occupancy
  Sn  Sn1       1.0  0.8722646328778167  0.33837454164461356  0.6281824586726801  1.0000
  Sn  Sn2       1.0  0.8910100325769122  0.2532668718494393  0.08386197879868211  1.0000
  Sn  Sn3       1.0  0.5444762525036677  0.8694570556948313  0.8567785728142603  1.0000
  Sn  Sn4       1.0  0.015515990800607633  0.9772431966792857  0.36448770646230116  1.0000
  P   P1        1.0  0.35343793531977913  0.27999698142162865  0.9448481675249106  1.0000
  P   P2        1.0  0.5894703361954007  0.3127460464327989  0.39785240363387847  1.0000
  P   P3        1.0  0.5698262845815025  0.4659979678426953  0.18691803659507045  1.0000
  P   P4        1.0  0.08896763321241613  0.8951834167186681  0.7217433585561344  1.0000
  S   S1        1.0  0.2781891518598105  0.7418173951973834  0.648498462479962  1.0000
  S   S2        1.0  0.3507652682761644  0.5208758760060779  0.2852458923022125  1.0000
  S   S3        1.0  0.7331643681255364  0.7326008247640707  0.048246142067372016  1.0000
  S   S4        1.0  0.22802316249396362  0.9497080519019356  0.06499819388923175  1.0000
  S   S5        1.0  0.20149174116400378  0.6996544866724295  0.9311671059702304  1.0000
  S   S6        1.0  0.7635419134891142  0.725609103570044  0.44564789453314596  1.0000
  S   S7        1.0  0.8692625387820987  0.2497765734866242  0.4427076000237645  1.0000
  S   S8        1.0  0.5431167656438964  0.344141071972215  0.8087880625177661  1.0000
  S   S9        1.0  0.8476148692849853  0.7380784638067137  0.7518546058109734  1.0000
  S   S10       1.0  0.5276030792243938  0.24169367410377118  0.0815292495705231  1.0000
  S   S11       1.0  0.2192289193479737  0.2433986825266068  0.6404315016925259  1.0000
  S   S12       1.0  0.3288195519231698  0.879281377457688  0.4518803165025207  1.0000
data_image115
_chemical_formula_structural       Sn4P4S12
_chemical_formula_sum              "Sn4 P4 S12"
_cell_length_a       7.57141576
_cell_length_b       6.596566975487068
_cell_length_c       11.859499654632444
_cell_angle_alpha    56.10713322711195
_cell_angle_beta     90.0
_cell_angle_gamma    90.0

_space_group_name_H-M_alt    "P 1"
_space_group_IT_number       1

loop_
  _space_group_symop_operation_xyz
  'x, y, z'

loop_
  _atom_site_type_symbol
  _atom_site_label
  _atom_site_symmetry_multiplicity
  _atom_site_fract_x
  _atom_site_fract_y
  _atom_site_fract_z
  _atom_site_occupancy
  Sn  Sn1       1.0  0.8221768893924443  0.36595253546007167  0.6405906626762514  1.0000
  Sn  Sn2       1.0  0.9403841002731572  0.2919383061133545  0.03427023490157462  1.0000
  Sn  Sn3       1.0  0.5207464823259813  0.8550757543788274  0.7927867761973926  1.0000
  Sn  Sn4       1.0  0.015849911580982378  0.04283587579235711  0.3639144123822411  1.0000
  P   P1        1.0  0.3415722420191184  0.30573074386364013  0.011634474124857847  1.0000
  P   P2        1.0  0.5778182706770375  0.17053320716656684  0.4156487763971583  1.0000
  P   P3        1.0  0.5701282112869479  0.3948981295684075  0.19144705182201743  1.0000
  P   P4        1.0  0.13484093398259372  0.8663551398446947  0.763390792858675  1.0000
  S   S1        1.0  0.30566912934612  0.7216270783382119  0.6766587115176782  1.0000
  S   S2        1.0  0.35187008679176296  0.4983352107487661  0.27019647177939154  1.0000
  S   S3        1.0  0.7325761286038025  0.6903913554073253  0.05948735418267695  1.0000
  S   S4        1.0  0.21263976600551276  0.03746001179511849  0.03562986882075801  1.0000
  S   S5        1.0  0.22155407598355467  0.591722639157176  0.9706071383140144  1.0000
  S   S6        1.0  0.8126953847004419  0.7711464865913661  0.3992583002471952  1.0000
  S   S7        1.0  0.7973744528368764  0.34677019717891333  0.42525748574875805  1.0000
  S   S8        1.0  0.5580633919937306  0.3659491287690133  0.8735774011592501  1.0000
  S   S9        1.0  0.8997614574807696  0.6768386182517322  0.7895962721524841  1.0000
  S   S10       1.0  0.4881268430188299  0.0928519293682355  0.19710418614409586  1.0000
  S   S11       1.0  0.1992719109088479  0.23383012175679996  0.6714058011954626  1.0000
  S   S12       1.0  0.38126257303992617  0.8118276654094486  0.48210142945705337  1.0000
data_image116
_chemical_formula_structural       Sn4P4S12
_chemical_formula_sum              "Sn4 P4 S12"
_cell_length_a       7.57141576
_cell_length_b       6.596566975487068
_cell_length_c       11.859499654632444
_cell_angle_alpha    56.10713322711195
_cell_angle_beta     90.0
_cell_angle_gamma    90.0

_space_group_name_H-M_alt    "P 1"
_space_group_IT_number       1

loop_
  _space_group_symop_operation_xyz
  'x, y, z'

loop_
  _atom_site_type_symbol
  _atom_site_label
  _atom_site_symmetry_multiplicity
  _atom_site_fract_x
  _atom_site_fract_y
  _atom_site_fract_z
  _atom_site_occupancy
  Sn  Sn1       1.0  0.7988623758403574  0.4361558151645246  0.6180311831478105  1.0000
  Sn  Sn2       1.0  0.9164408264112388  0.32930463411115696  0.01907075759055423  1.0000
  Sn  Sn3       1.0  0.5342656680623977  0.8068304706416263  0.79986005308754  1.0000
  Sn  Sn4       1.0  0.09632263217176831  0.0716106250235429  0.3666552700390708  1.0000
  P   P1        1.0  0.33975424384643993  0.25618622699786553  0.04686183395309825  1.0000
  P   P2        1.0  0.6319783565228337  0.09956969283129591  0.428059652793032  1.0000
  P   P3        1.0  0.5123816729821535  0.29551952422860633  0.2413116235834502  1.0000
  P   P4        1.0  0.07064390366039992  0.8609836421687004  0.7567459424845138  1.0000
  S   S1        1.0  0.26354209739114465  0.7066782079386473  0.662085334272676  1.0000
  S   S2        1.0  0.41039528856502766  0.42669330996448557  0.35963200393851924  1.0000
  S   S3        1.0  0.6929961804693611  0.6448661642591746  0.05841126898919939  1.0000
  S   S4        1.0  0.1381623415355028  0.0362118178031407  0.058158915123890306  1.0000
  S   S5        1.0  0.1920347431506869  0.7147620946440109  0.9224890806635024  1.0000
  S   S6        1.0  0.8406139737609928  0.8710624472951448  0.3661443206722259  1.0000
  S   S7        1.0  0.8251967879769322  0.32619623615884896  0.4194053276023697  1.0000
  S   S8        1.0  0.5798021045349675  0.3426303605150307  0.9227130334914713  1.0000
  S   S9        1.0  0.88013489295704  0.7692559113443409  0.6760903487960119  1.0000
  S   S10       1.0  0.4681033396594927  0.9622100489098642  0.22600521202433277  1.0000
  S   S11       1.0  0.15155875054631615  0.25448836258642493  0.6472084299727179  1.0000
  S   S12       1.0  0.40819710097705997  0.6741547944376287  0.5487216878670189  1.0000
data_image117
_chemical_formula_structural       Sn4P4S12
_chemical_formula_sum              "Sn4 P4 S12"
_cell_length_a       7.57141576
_cell_length_b       6.596566975487068
_cell_length_c       11.859499654632444
_cell_angle_alpha    56.10713322711195
_cell_angle_beta     90.0
_cell_angle_gamma    90.0

_space_group_name_H-M_alt    "P 1"
_space_group_IT_number       1

loop_
  _space_group_symop_operation_xyz
  'x, y, z'

loop_
  _atom_site_type_symbol
  _atom_site_label
  _atom_site_symmetry_multiplicity
  _atom_site_fract_x
  _atom_site_fract_y
  _atom_site_fract_z
  _atom_site_occupancy
  Sn  Sn1       1.0  0.7703129702775462  0.46691575894564963  0.6134694281181953  1.0000
  Sn  Sn2       1.0  0.8830848490315912  0.2911852102643535  0.05023927340389425  1.0000
  Sn  Sn3       1.0  0.5502429788187936  0.7083719509396249  0.8354236759520375  1.0000
  Sn  Sn4       1.0  0.18019433246141886  0.12899360815121827  0.3948662308386182  1.0000
  P   P1        1.0  0.33675691368886895  0.27060537923289835  0.99234168350684  1.0000
  P   P2        1.0  0.7147216323675886  0.9999044616669238  0.3987793539960471  1.0000
  P   P3        1.0  0.5680222869794924  0.3396541069171343  0.27092304463928346  1.0000
  P   P4        1.0  0.9304396937052559  0.02094997102253806  0.7537632328477247  1.0000
  S   S1        1.0  0.2608262312720937  0.6401371141280554  0.6171249248998296  1.0000
  S   S2        1.0  0.41628875527995535  0.3394356079954447  0.43176476320084756  1.0000
  S   S3        1.0  0.681569409298968  0.5884394652271419  0.06345647816923992  1.0000
  S   S4        1.0  0.18321863900582808  0.0045333139172658654  0.9999215222586983  1.0000
  S   S5        1.0  0.08708627258449696  0.629013855423897  0.9825508088037623  1.0000
  S   S6        1.0  0.8430064229709082  0.8961284460899445  0.2988968870972888  1.0000
  S   S7        1.0  0.8296343330799809  0.3737119320408108  0.35513161149324207  1.0000
  S   S8        1.0  0.6014188103920974  0.1879366858464221  0.9198133455973381  1.0000
  S   S9        1.0  0.8583889745080885  0.7745921555954625  0.703677362822253  1.0000
  S   S10       1.0  0.3678118701332157  0.24597779941441134  0.17950533995328555  1.0000
  S   S11       1.0  0.08541737500781707  0.39259072296694386  0.533822827834834  1.0000
  S   S12       1.0  0.49684284081902486  0.7221969554111511  0.5024986600868797  1.0000
data_image118
_chemical_formula_structural       Sn4P4S12
_chemical_formula_sum              "Sn4 P4 S12"
_cell_length_a       7.57141576
_cell_length_b       6.596566975487068
_cell_length_c       11.859499654632444
_cell_angle_alpha    56.10713322711195
_cell_angle_beta     90.0
_cell_angle_gamma    90.0

_space_group_name_H-M_alt    "P 1"
_space_group_IT_number       1

loop_
  _space_group_symop_operation_xyz
  'x, y, z'

loop_
  _atom_site_type_symbol
  _atom_site_label
  _atom_site_symmetry_multiplicity
  _atom_site_fract_x
  _atom_site_fract_y
  _atom_site_fract_z
  _atom_site_occupancy
  Sn  Sn1       1.0  0.7566237711789132  0.4288800265253174  0.6354348086883058  1.0000
  Sn  Sn2       1.0  0.8878863234588081  0.2679636011455566  0.05465243206647238  1.0000
  Sn  Sn3       1.0  0.5599194089470348  0.6993014836692645  0.8492515237352325  1.0000
  Sn  Sn4       1.0  0.2068656101611772  0.09781629532320786  0.4335717843144346  1.0000
  P   P1        1.0  0.37966490180378387  0.324307778469776  0.9742103143796564  1.0000
  P   P2        1.0  0.7607529947337636  0.036435162880400274  0.3675037049910043  1.0000
  P   P3        1.0  0.5427053251311376  0.32161953025563067  0.23750296797172443  1.0000
  P   P4        1.0  0.9811358949526746  0.06823500015761577  0.7468832500954952  1.0000
  S   S1        1.0  0.3633729012822575  0.5894628554605705  0.653093685992486  1.0000
  S   S2        1.0  0.47541627466874536  0.39629991293268324  0.38139808148944637  1.0000
  S   S3        1.0  0.7286627385763771  0.6137673685996055  0.048009477632224434  1.0000
  S   S4        1.0  0.16025945767124786  0.16030350827408382  0.9513257455117284  1.0000
  S   S5        1.0  0.06238780389416307  0.6877099554249438  0.8433943099239788  1.0000
  S   S6        1.0  0.8600462713798509  0.847374107675366  0.2684249950980839  1.0000
  S   S7        1.0  0.7402332816336475  0.36988582126164793  0.399167219381551  1.0000
  S   S8        1.0  0.5511366755895608  0.03654008038762668  0.05051423603468663  1.0000
  S   S9        1.0  0.8075558920213068  0.8578379631124315  0.6816716089635249  1.0000
  S   S10       1.0  0.24460787182527177  0.3155901113459384  0.1471792496144022  1.0000
  S   S11       1.0  0.06900030486661199  0.35013641863714673  0.532687283732918  1.0000
  S   S12       1.0  0.4356281731341629  0.8349962548227581  0.42511118300586337  1.0000
data_image119
_chemical_formula_structural       Sn4P4S12
_chemical_formula_sum              "Sn4 P4 S12"
_cell_length_a       7.57141576
_cell_length_b       6.596566975487068
_cell_length_c       11.859499654632444
_cell_angle_alpha    56.10713322711195
_cell_angle_beta     90.0
_cell_angle_gamma    90.0

_space_group_name_H-M_alt    "P 1"
_space_group_IT_number       1

loop_
  _space_group_symop_operation_xyz
  'x, y, z'

loop_
  _atom_site_type_symbol
  _atom_site_label
  _atom_site_symmetry_multiplicity
  _atom_site_fract_x
  _atom_site_fract_y
  _atom_site_fract_z
  _atom_site_occupancy
  Sn  Sn1       1.0  0.7707142390819619  0.41963389822503294  0.6107017609358389  1.0000
  Sn  Sn2       1.0  0.8673660864144466  0.2552057827028402  0.032954895602101165  1.0000
  Sn  Sn3       1.0  0.4941302828548955  0.6831828321145627  0.8687207585677049  1.0000
  Sn  Sn4       1.0  0.17446353047524235  0.03702446082269973  0.47053945945930575  1.0000
  P   P1        1.0  0.33850429437798113  0.2598451947665732  0.01978923336852155  1.0000
  P   P2        1.0  0.6670883424501215  0.987074534515155  0.3369011474689427  1.0000
  P   P3        1.0  0.5941453619132118  0.3829219941802155  0.21915415111860018  1.0000
  P   P4        1.0  0.1171743998523105  0.2215620443261124  0.7003224765758902  1.0000
  S   S1        1.0  0.49015943869617074  0.6368039678422817  0.6405784094465506  1.0000
  S   S2        1.0  0.46554271236276396  0.40939922924297284  0.4026189411329095  1.0000
  S   S3        1.0  0.785913454085838  0.5982803031027988  0.10514052885318649  1.0000
  S   S4        1.0  0.20619127831599612  0.14067969290523336  0.9193105545437726  1.0000
  S   S5        1.0  0.1869983268325172  0.8097320503039616  0.7420498605683765  1.0000
  S   S6        1.0  0.8144518663608558  0.8146797104333918  0.2802097402466871  1.0000
  S   S7        1.0  0.6892826419629436  0.21293757590570447  0.49421441145714107  1.0000
  S   S8        1.0  0.5381823796451661  0.050279997317897784  0.032870779369861935  1.0000
  S   S9        1.0  0.8676248634523435  0.8770853311980018  0.7221155601356619  1.0000
  S   S10       1.0  0.2861857032789942  0.35845965163938565  0.14935423060244402  1.0000
  S   S11       1.0  0.09742476058724762  0.5664662578825839  0.5157831425384103  1.0000
  S   S12       1.0  0.40762295038956653  0.8554842746310433  0.3880219056599912  1.0000
data_image120
_chemical_formula_structural       Sn4P4S12
_chemical_formula_sum              "Sn4 P4 S12"
_cell_length_a       7.57141576
_cell_length_b       6.596566975487068
_cell_length_c       11.859499654632444
_cell_angle_alpha    56.10713322711195
_cell_angle_beta     90.0
_cell_angle_gamma    90.0

_space_group_name_H-M_alt    "P 1"
_space_group_IT_number       1

loop_
  _space_group_symop_operation_xyz
  'x, y, z'

loop_
  _atom_site_type_symbol
  _atom_site_label
  _atom_site_symmetry_multiplicity
  _atom_site_fract_x
  _atom_site_fract_y
  _atom_site_fract_z
  _atom_site_occupancy
  Sn  Sn1       1.0  0.8243117738461485  0.41958988548316367  0.5831048646312328  1.0000
  Sn  Sn2       1.0  0.8662157351080506  0.22696865423765789  0.018625936165473766  1.0000
  Sn  Sn3       1.0  0.544120325498992  0.7372118881875359  0.8338845307959455  1.0000
  Sn  Sn4       1.0  0.10437578671972303  0.014944007212210944  0.47552253619559803  1.0000
  P   P1        1.0  0.35241301714691076  0.28843989777018963  0.9970880814867807  1.0000
  P   P2        1.0  0.622335183995419  0.08656502494953733  0.34973736752091855  1.0000
  P   P3        1.0  0.5364896248947904  0.5423527469641665  0.19021362912067843  1.0000
  P   P4        1.0  0.1705937297334519  0.30745445959802903  0.6569259475387049  1.0000
  S   S1        1.0  0.488757570924959  0.4950422775182348  0.6823617119926202  1.0000
  S   S2        1.0  0.47493902349436484  0.30330243862380407  0.46544883091020595  1.0000
  S   S3        1.0  0.7690413794873618  0.4730933321612285  0.1548539473451322  1.0000
  S   S4        1.0  0.1476409903865985  0.10602919021383657  0.9850026515008998  1.0000
  S   S5        1.0  0.1817911145467448  0.9079523141813766  0.732345663187697  1.0000
  S   S6        1.0  0.7709318735448591  0.9028236682402127  0.3038332194455951  1.0000
  S   S7        1.0  0.7072268350324773  0.03742977504059983  0.5284631574820035  1.0000
  S   S8        1.0  0.5323599312764631  0.027032983628788254  0.060904407365601765  1.0000
  S   S9        1.0  0.9047714378124169  0.9097157721668436  0.7904374376356449  1.0000
  S   S10       1.0  0.266796641693789  0.4147793923725688  0.11203531682635415  1.0000
  S   S11       1.0  0.08841592416130975  0.5911403619704718  0.44582622993395704  1.0000
  S   S12       1.0  0.41951539738870114  0.788062408755575  0.4781609501355133  1.0000
data_image121
_chemical_formula_structural       Sn4P4S12
_chemical_formula_sum              "Sn4 P4 S12"
_cell_length_a       7.57141576
_cell_length_b       6.596566975487068
_cell_length_c       11.859499654632444
_cell_angle_alpha    56.10713322711195
_cell_angle_beta     90.0
_cell_angle_gamma    90.0

_space_group_name_H-M_alt    "P 1"
_space_group_IT_number       1

loop_
  _space_group_symop_operation_xyz
  'x, y, z'

loop_
  _atom_site_type_symbol
  _atom_site_label
  _atom_site_symmetry_multiplicity
  _atom_site_fract_x
  _atom_site_fract_y
  _atom_site_fract_z
  _atom_site_occupancy
  Sn  Sn1       1.0  0.830108710489162  0.379720868967649  0.6058702264602785  1.0000
  Sn  Sn2       1.0  0.8429541645653541  0.22752440651466088  0.9921567891457195  1.0000
  Sn  Sn3       1.0  0.5923599410969917  0.7890771650179171  0.8200810810643322  1.0000
  Sn  Sn4       1.0  0.06340934932720566  0.03144188911995144  0.44990338151365156  1.0000
  P   P1        1.0  0.30400609898692776  0.3282569876362133  0.9569025200142398  1.0000
  P   P2        1.0  0.541575312483454  0.13437057240130468  0.40095160045242123  1.0000
  P   P3        1.0  0.49037385680988527  0.4773175978568949  0.21456521701539355  1.0000
  P   P4        1.0  0.18130019864086405  0.41088032612021247  0.6073642407587846  1.0000
  S   S1        1.0  0.43317450143064584  0.36431198785564445  0.7143438513457545  1.0000
  S   S2        1.0  0.5093358027531765  0.2524953815291901  0.5268012381645555  1.0000
  S   S3        1.0  0.7088991894201226  0.5538043954775684  0.10612723279651445  1.0000
  S   S4        1.0  0.18121748472153495  0.029803671821313608  0.024835570877965858  1.0000
  S   S5        1.0  0.13782832750479987  0.0249000032953135  0.6818912207061372  1.0000
  S   S6        1.0  0.7715875239707171  0.8843484990723649  0.36645521741578535  1.0000
  S   S7        1.0  0.7692632814172643  0.06029299916050639  0.5345353706632103  1.0000
  S   S8        1.0  0.5281418213457874  0.05847350027033282  0.0754041191075745  1.0000
  S   S9        1.0  0.9648521646702264  0.8389799527576179  0.8406427326822052  1.0000
  S   S10       1.0  0.3002309234199786  0.4143685080463172  0.1327374272127333  1.0000
  S   S11       1.0  0.17349938476613036  0.5121159813613678  0.40888593136385276  1.0000
  S   S12       1.0  0.47016327201394725  0.739215373675824  0.4990412033914027  1.0000
data_image122
_chemical_formula_structural       Sn4P4S12
_chemical_formula_sum              "Sn4 P4 S12"
_cell_length_a       7.57141576
_cell_length_b       6.596566975487068
_cell_length_c       11.859499654632444
_cell_angle_alpha    56.10713322711195
_cell_angle_beta     90.0
_cell_angle_gamma    90.0

_space_group_name_H-M_alt    "P 1"
_space_group_IT_number       1

loop_
  _space_group_symop_operation_xyz
  'x, y, z'

loop_
  _atom_site_type_symbol
  _atom_site_label
  _atom_site_symmetry_multiplicity
  _atom_site_fract_x
  _atom_site_fract_y
  _atom_site_fract_z
  _atom_site_occupancy
  Sn  Sn1       1.0  0.7766648584391621  0.33257549136041664  0.6375282189856121  1.0000
  Sn  Sn2       1.0  0.8463042260760231  0.2864864409929393  0.9546314642180882  1.0000
  Sn  Sn3       1.0  0.6276941512581652  0.8169099211734373  0.8271358280150536  1.0000
  Sn  Sn4       1.0  0.08991331825527055  0.11340707641013124  0.39009673376110077  1.0000
  P   P1        1.0  0.3145598752397557  0.1961184989627339  0.012386909936817674  1.0000
  P   P2        1.0  0.5906132865714298  0.18412273643704613  0.3942853348980948  1.0000
  P   P3        1.0  0.5017513123674654  0.4166000570382238  0.18221918796893577  1.0000
  P   P4        1.0  0.1402737700722768  0.4359485998724595  0.6258518101035185  1.0000
  S   S1        1.0  0.40497514082058905  0.5442316470968864  0.6708621431631152  1.0000
  S   S2        1.0  0.36215664479943954  0.16705803042429587  0.5213262851455819  1.0000
  S   S3        1.0  0.7060356553967679  0.6356120115456141  0.07215363853096668  1.0000
  S   S4        1.0  0.0906609301954015  0.017471015819605373  0.078124995802168  1.0000
  S   S5        1.0  0.11600599477437101  0.9048719758343584  0.7410624080684541  1.0000
  S   S6        1.0  0.8080694268635353  0.7364889101800887  0.3690543779948694  1.0000
  S   S7        1.0  0.8038578307507355  0.13919075382848356  0.4849970895556141  1.0000
  S   S8        1.0  0.5656288975124082  0.029268558097055752  0.14743905906128374  1.0000
  S   S9        1.0  0.9892326423145331  0.6952760502607809  0.9042239331052868  1.0000
  S   S10       1.0  0.27180506183265407  0.22355777957366307  0.20615083723737815  1.0000
  S   S11       1.0  0.2170371800482625  0.5383809769221481  0.4210819734222494  1.0000
  S   S12       1.0  0.5404986568370778  0.766190971989457  0.47706152312053307  1.0000
data_image123
_chemical_formula_structural       Sn4P4S12
_chemical_formula_sum              "Sn4 P4 S12"
_cell_length_a       7.57141576
_cell_length_b       6.596566975487068
_cell_length_c       11.859499654632444
_cell_angle_alpha    56.10713322711195
_cell_angle_beta     90.0
_cell_angle_gamma    90.0

_space_group_name_H-M_alt    "P 1"
_space_group_IT_number       1

loop_
  _space_group_symop_operation_xyz
  'x, y, z'

loop_
  _atom_site_type_symbol
  _atom_site_label
  _atom_site_symmetry_multiplicity
  _atom_site_fract_x
  _atom_site_fract_y
  _atom_site_fract_z
  _atom_site_occupancy
  Sn  Sn1       1.0  0.8012498186691144  0.33380564735853  0.6294557038863542  1.0000
  Sn  Sn2       1.0  0.8673439824220559  0.3617025524603912  0.9267759126226128  1.0000
  Sn  Sn3       1.0  0.6046767127063464  0.7627868553148296  0.8313055980805224  1.0000
  Sn  Sn4       1.0  0.033304285067542794  0.09656654275629072  0.4098257893359862  1.0000
  P   P1        1.0  0.39344159016545327  0.002939022974912488  0.044033252750305035  1.0000
  P   P2        1.0  0.5588354382497722  0.1666317802077022  0.38599802689003165  1.0000
  P   P3        1.0  0.4574033196325542  0.3630392214645031  0.20259390145500947  1.0000
  P   P4        1.0  0.19484391111064797  0.4747098448192693  0.6261606497552437  1.0000
  S   S1        1.0  0.39882948264291085  0.5848113382025746  0.6818675329654592  1.0000
  S   S2        1.0  0.4002688546595429  0.0029466582108642497  0.5798652325484656  1.0000
  S   S3        1.0  0.5935799279394199  0.7387163441646154  0.10447729247183953  1.0000
  S   S4        1.0  0.17489964666227684  0.8760526997274849  0.16303021826087502  1.0000
  S   S5        1.0  0.031700750847526986  0.8400272234163063  0.7575531911549207  1.0000
  S   S6        1.0  0.9074993959816906  0.7295430813789435  0.39777773666937377  1.0000
  S   S7        1.0  0.7589240231945212  0.11747227691377676  0.5109825857521443  1.0000
  S   S8        1.0  0.6023575140424042  0.24195439061915047  0.08580403758778177  1.0000
  S   S9        1.0  0.9308440218575769  0.7589964855609809  0.9568671568642908  1.0000
  S   S10       1.0  0.2296927305428793  0.32666805380347974  0.07526677212198374  1.0000
  S   S11       1.0  0.24829648464211027  0.5013847495665749  0.4533194509871077  1.0000
  S   S12       1.0  0.6682270922929301  0.8753948225155246  0.3265081597567281  1.0000
data_image124
_chemical_formula_structural       Sn4P4S12
_chemical_formula_sum              "Sn4 P4 S12"
_cell_length_a       7.57141576
_cell_length_b       6.596566975487068
_cell_length_c       11.859499654632444
_cell_angle_alpha    56.10713322711195
_cell_angle_beta     90.0
_cell_angle_gamma    90.0

_space_group_name_H-M_alt    "P 1"
_space_group_IT_number       1

loop_
  _space_group_symop_operation_xyz
  'x, y, z'

loop_
  _atom_site_type_symbol
  _atom_site_label
  _atom_site_symmetry_multiplicity
  _atom_site_fract_x
  _atom_site_fract_y
  _atom_site_fract_z
  _atom_site_occupancy
  Sn  Sn1       1.0  0.794998041788909  0.3246637622261155  0.6690328101031349  1.0000
  Sn  Sn2       1.0  0.9495019042122896  0.4392844181765274  0.870390936657416  1.0000
  Sn  Sn3       1.0  0.5399015771898358  0.7884482119947477  0.8298148806076507  1.0000
  Sn  Sn4       1.0  0.01465271359790866  0.09439090138798913  0.3754137831528829  1.0000
  P   P1        1.0  0.40811169686578036  0.015464368183321062  0.9951457506775278  1.0000
  P   P2        1.0  0.550372525772916  0.08998739798578259  0.41583724372626346  1.0000
  P   P3        1.0  0.4559136242134169  0.49456205417059307  0.1670210367316157  1.0000
  P   P4        1.0  0.16118771149483255  0.4540697620573797  0.5952687225405412  1.0000
  S   S1        1.0  0.4470179625707684  0.4288633495873835  0.7508543880282695  1.0000
  S   S2        1.0  0.2710876780814572  0.8621729878446035  0.5496628189840513  1.0000
  S   S3        1.0  0.6195243065585735  0.735913652914044  0.14508538752049607  1.0000
  S   S4        1.0  0.33463366506395276  0.8359720581492326  0.2430099054250309  1.0000
  S   S5        1.0  0.026243028939057698  0.8956572930181826  0.7620444015884806  1.0000
  S   S6        1.0  0.9435240155089402  0.6843293933084074  0.4266797049472403  1.0000
  S   S7        1.0  0.7209533598101731  0.10341047535450688  0.5452011581172267  1.0000
  S   S8        1.0  0.6898738713701982  0.4064246693891721  0.0628239962746926  1.0000
  S   S9        1.0  0.8887374418027534  0.931330217001763  0.9046113344811042  1.0000
  S   S10       1.0  0.10338541004293278  0.13107776776313396  0.07623984695970232  1.0000
  S   S11       1.0  0.332371784631429  0.4257764561180053  0.4729934042005054  1.0000
  S   S12       1.0  0.6239123062037937  0.7653568779492346  0.43379882265714165  1.0000
data_image125
_chemical_formula_structural       Sn4P4S12
_chemical_formula_sum              "Sn4 P4 S12"
_cell_length_a       7.57141576
_cell_length_b       6.596566975487068
_cell_length_c       11.859499654632444
_cell_angle_alpha    56.10713322711195
_cell_angle_beta     90.0
_cell_angle_gamma    90.0

_space_group_name_H-M_alt    "P 1"
_space_group_IT_number       1

loop_
  _space_group_symop_operation_xyz
  'x, y, z'

loop_
  _atom_site_type_symbol
  _atom_site_label
  _atom_site_symmetry_multiplicity
  _atom_site_fract_x
  _atom_site_fract_y
  _atom_site_fract_z
  _atom_site_occupancy
  Sn  Sn1       1.0  0.7368345073303755  0.3685107238432661  0.6545890343280555  1.0000
  Sn  Sn2       1.0  0.9917852902279317  0.48599050754692086  0.8329003305728213  1.0000
  Sn  Sn3       1.0  0.5469341198192327  0.7713450038823367  0.8339748548523175  1.0000
  Sn  Sn4       1.0  0.036943054057229405  0.11454253780689114  0.3434591817288295  1.0000
  P   P1        1.0  0.3811963157432343  0.9158725436666569  0.06504037748177516  1.0000
  P   P2        1.0  0.46889198193394127  0.0949906830553866  0.45799023404795913  1.0000
  P   P3        1.0  0.5156418630183296  0.5381061727137667  0.15993716732131347  1.0000
  P   P4        1.0  0.12660796854433792  0.5108782542155303  0.5820557990276365  1.0000
  S   S1        1.0  0.4675236048709688  0.2667139003374295  0.8278548288274014  1.0000
  S   S2        1.0  0.22827238244601544  0.877125754913417  0.57294697991431  1.0000
  S   S3        1.0  0.6894627335749883  0.788446206133034  0.1732151519221557  1.0000
  S   S4        1.0  0.343499359101331  0.7126310183353413  0.2888483859224923  1.0000
  S   S5        1.0  0.11362777704220388  0.938719500021625  0.7598840335104399  1.0000
  S   S6        1.0  0.9188056812882051  0.6056187244853057  0.4441265610969799  1.0000
  S   S7        1.0  0.7094573407882505  0.04969672313580336  0.5665635682983039  1.0000
  S   S8        1.0  0.7043763615956622  0.40893571507495896  0.02366013775398823  1.0000
  S   S9        1.0  0.9098345759663015  0.9619101472074526  0.8594839117143438  1.0000
  S   S10       1.0  0.10146101304467647  0.09139093710787771  0.10534614395905795  1.0000
  S   S11       1.0  0.34796306218173506  0.37810692769789345  0.4845321727450299  1.0000
  S   S12       1.0  0.49777091717740807  0.7756285293769422  0.4753581923512351  1.0000
data_image126
_chemical_formula_structural       Sn4P4S12
_chemical_formula_sum              "Sn4 P4 S12"
_cell_length_a       7.57141576
_cell_length_b       6.596566975487068
_cell_length_c       11.859499654632444
_cell_angle_alpha    56.10713322711195
_cell_angle_beta     90.0
_cell_angle_gamma    90.0

_space_group_name_H-M_alt    "P 1"
_space_group_IT_number       1

loop_
  _space_group_symop_operation_xyz
  'x, y, z'

loop_
  _atom_site_type_symbol
  _atom_site_label
  _atom_site_symmetry_multiplicity
  _atom_site_fract_x
  _atom_site_fract_y
  _atom_site_fract_z
  _atom_site_occupancy
  Sn  Sn1       1.0  0.7239557297480199  0.3232485005025214  0.6642219898292285  1.0000
  Sn  Sn2       1.0  0.010350057767290588  0.517297277360321  0.8454591847479762  1.0000
  Sn  Sn3       1.0  0.49466534153987024  0.7938870965932809  0.793166484042458  1.0000
  Sn  Sn4       1.0  0.047210062715413524  0.1804365306318961  0.315327842314753  1.0000
  P   P1        1.0  0.4358287485054804  0.8158687103447051  0.11394428195726893  1.0000
  P   P2        1.0  0.5521510174949936  0.13993710088439237  0.4308705616837994  1.0000
  P   P3        1.0  0.5179489635081375  0.5093072040060928  0.10517562002924095  1.0000
  P   P4        1.0  0.10436031252540184  0.47155086436016225  0.6236571886343415  1.0000
  S   S1        1.0  0.320549663958158  0.14051709572840876  0.9253410526025059  1.0000
  S   S2        1.0  0.27965038343924004  0.7544095057092879  0.6009666326248602  1.0000
  S   S3        1.0  0.6926392963891739  0.798474467420635  0.11927013260929674  1.0000
  S   S4        1.0  0.22413344271918859  0.8220735301280118  0.2061135021791997  1.0000
  S   S5        1.0  0.1329073301821222  0.9076008052455176  0.7967432495819095  1.0000
  S   S6        1.0  0.9740077104323523  0.6973133229099291  0.4550469223111111  1.0000
  S   S7        1.0  0.7763836166517137  0.09578523893316197  0.5403452986476177  1.0000
  S   S8        1.0  0.7236237263820908  0.28844371782726774  0.0597110327105963  1.0000
  S   S9        1.0  0.9300280592829505  0.944243619418808  0.8999767942865673  1.0000
  S   S10       1.0  0.1447302342768485  0.17158503887715537  0.09103017179603201  1.0000
  S   S11       1.0  0.39620622768073005  0.2658584033498732  0.6013373749410891  1.0000
  S   S12       1.0  0.460173532621305  0.8098514140356883  0.44984367884135446  1.0000
data_image127
_chemical_formula_structural       Sn4P4S12
_chemical_formula_sum              "Sn4 P4 S12"
_cell_length_a       7.57141576
_cell_length_b       6.596566975487068
_cell_length_c       11.859499654632444
_cell_angle_alpha    56.10713322711195
_cell_angle_beta     90.0
_cell_angle_gamma    90.0

_space_group_name_H-M_alt    "P 1"
_space_group_IT_number       1

loop_
  _space_group_symop_operation_xyz
  'x, y, z'

loop_
  _atom_site_type_symbol
  _atom_site_label
  _atom_site_symmetry_multiplicity
  _atom_site_fract_x
  _atom_site_fract_y
  _atom_site_fract_z
  _atom_site_occupancy
  Sn  Sn1       1.0  0.6931885989683775  0.3028748377755812  0.6544470943650574  1.0000
  Sn  Sn2       1.0  0.9301799675457875  0.5475071034695365  0.8533583308799386  1.0000
  Sn  Sn3       1.0  0.538156025330238  0.8338788411030689  0.7519953013767108  1.0000
  Sn  Sn4       1.0  0.08483015336731056  0.21382352555243064  0.29426914719217423  1.0000
  P   P1        1.0  0.3987001631842815  0.7236520252645279  0.12355730428530043  1.0000
  P   P2        1.0  0.5925620490589208  0.23696369236443604  0.4576978620894128  1.0000
  P   P3        1.0  0.5808693297218107  0.4991505777165634  0.08937980642772528  1.0000
  P   P4        1.0  0.10344874277604174  0.4763092354989234  0.6366538462020149  1.0000
  S   S1        1.0  0.3687100173700253  0.11402442253358691  0.9779542405544563  1.0000
  S   S2        1.0  0.39094628950340055  0.7281722734669394  0.5638655021258097  1.0000
  S   S3        1.0  0.6674854299144521  0.6733518262123548  0.21382535698876431  1.0000
  S   S4        1.0  0.20860616710929925  0.6457540357233853  0.27513504464802313  1.0000
  S   S5        1.0  0.09658892031931304  0.9340231018635544  0.7753552424019369  1.0000
  S   S6        1.0  0.9793642555705562  0.7094316587597754  0.45926417957598864  1.0000
  S   S7        1.0  0.8214217203568859  0.017833775193137287  0.5562099123619045  1.0000
  S   S8        1.0  0.6404628761566207  0.1541883181168624  0.13211061785295608  1.0000
  S   S9        1.0  0.9971937047360647  0.8647469467301278  0.9578942817203533  1.0000
  S   S10       1.0  0.21635607706888305  0.2729211285988341  0.05719414035823345  1.0000
  S   S11       1.0  0.2693225692625173  0.2347227373897136  0.6151565312698809  1.0000
  S   S12       1.0  0.4425431190353555  0.03797568042342519  0.3666856007066954  1.0000
data_image128
_chemical_formula_structural       Sn4P4S12
_chemical_formula_sum              "Sn4 P4 S12"
_cell_length_a       7.57141576
_cell_length_b       6.596566975487068
_cell_length_c       11.859499654632444
_cell_angle_alpha    56.10713322711195
_cell_angle_beta     90.0
_cell_angle_gamma    90.0

_space_group_name_H-M_alt    "P 1"
_space_group_IT_number       1

loop_
  _space_group_symop_operation_xyz
  'x, y, z'

loop_
  _atom_site_type_symbol
  _atom_site_label
  _atom_site_symmetry_multiplicity
  _atom_site_fract_x
  _atom_site_fract_y
  _atom_site_fract_z
  _atom_site_occupancy
  Sn  Sn1       1.0  0.724487827242994  0.28700834622145344  0.6909847894376215  1.0000
  Sn  Sn2       1.0  0.9180254707572328  0.4965696881580375  0.8842625604932941  1.0000
  Sn  Sn3       1.0  0.5136634722849317  0.8057894672964253  0.731321586861464  1.0000
  Sn  Sn4       1.0  0.07847091206853342  0.17172241313797817  0.2977852741580355  1.0000
  P   P1        1.0  0.3801172455115352  0.7438469050939203  0.10111864439298902  1.0000
  P   P2        1.0  0.6321241511137518  0.2895487408964261  0.43487628261550504  1.0000
  P   P3        1.0  0.6427824577753325  0.6332172174259871  0.0832353992019132  1.0000
  P   P4        1.0  0.05420776061651285  0.41455763430026205  0.6659484861022166  1.0000
  S   S1        1.0  0.4154466211919041  0.11357714995618085  2.0470516352233403e-05  1.0000
  S   S2        1.0  0.5125771633159845  0.7761004791140504  0.5033940108280807  1.0000
  S   S3        1.0  0.6302029532891134  0.6594420179071674  0.24536125230869374  1.0000
  S   S4        1.0  0.14928984332178935  0.5791116627944515  0.24788108655556926  1.0000
  S   S5        1.0  0.10492345792574262  0.06993565885961117  0.7377529113189916  1.0000
  S   S6        1.0  0.903166753524711  0.6045009796313099  0.49374430395236757  1.0000
  S   S7        1.0  0.8218585893152123  0.03187373915020915  0.5101381203182893  1.0000
  S   S8        1.0  0.7215496516595761  0.25127170846410785  0.12771337881469158  1.0000
  S   S9        1.0  0.8737077850214618  0.8125117529820909  0.954341230269667  1.0000
  S   S10       1.0  0.24723184703089673  0.4011226516224342  0.9818050383211461  1.0000
  S   S11       1.0  0.3004473744733478  0.34053998955862297  0.5971491132246414  1.0000
  S   S12       1.0  0.42535372814768935  0.11354493302953524  0.3883483389894462  1.0000
data_image129
_chemical_formula_structural       Sn4P4S12
_chemical_formula_sum              "Sn4 P4 S12"
_cell_length_a       7.57141576
_cell_length_b       6.596566975487068
_cell_length_c       11.859499654632444
_cell_angle_alpha    56.10713322711195
_cell_angle_beta     90.0
_cell_angle_gamma    90.0

_space_group_name_H-M_alt    "P 1"
_space_group_IT_number       1

loop_
  _space_group_symop_operation_xyz
  'x, y, z'

loop_
  _atom_site_type_symbol
  _atom_site_label
  _atom_site_symmetry_multiplicity
  _atom_site_fract_x
  _atom_site_fract_y
  _atom_site_fract_z
  _atom_site_occupancy
  Sn  Sn1       1.0  0.7327559567253908  0.22947774441562374  0.7135793804485024  1.0000
  Sn  Sn2       1.0  0.9567031115668956  0.4351731184509149  0.9184853760463952  1.0000
  Sn  Sn3       1.0  0.4426444742674128  0.8147947909108781  0.6878430917267084  1.0000
  Sn  Sn4       1.0  0.07281445486391751  0.16406449526474728  0.28875566191280827  1.0000
  P   P1        1.0  0.36198038022587165  0.7843268847279182  0.05197436868804309  1.0000
  P   P2        1.0  0.6596935928060833  0.18679679012469785  0.5023978549694345  1.0000
  P   P3        1.0  0.6420617249952456  0.712773429528934  0.12786558668244902  1.0000
  P   P4        1.0  0.054964589147093255  0.657295792050728  0.5620995601538527  1.0000
  S   S1        1.0  0.4352612304957322  0.16317603631860922  0.9838105160757936  1.0000
  S   S2        1.0  0.5324657668941015  0.6839345903955398  0.5203453882707992  1.0000
  S   S3        1.0  0.6265834999119699  0.8320053712807898  0.24993816048434417  1.0000
  S   S4        1.0  0.13926416539281483  0.6519157479313693  0.18246253753809058  1.0000
  S   S5        1.0  0.09931087338825176  0.018681975251752858  0.7195295069362755  1.0000
  S   S6        1.0  0.9075366285246094  0.5858907024994416  0.4540353158191939  1.0000
  S   S7        1.0  0.8977958419520184  0.059101289382267046  0.5072326295348455  1.0000
  S   S8        1.0  0.7477131957889633  0.35680091441821205  0.15750433046029633  1.0000
  S   S9        1.0  0.8325328069396866  0.8870540836858464  0.9775190920000201  1.0000
  S   S10       1.0  0.24460862567974084  0.31581127978488155  0.014909764893620281  1.0000
  S   S11       1.0  0.2808878889072116  0.3646082857057975  0.6112072308057526  1.0000
  S   S12       1.0  0.4639606174064943  0.019770382643265885  0.43214190907278516  1.0000
data_image130
_chemical_formula_structural       Sn4P4S12
_chemical_formula_sum              "Sn4 P4 S12"
_cell_length_a       7.57141576
_cell_length_b       6.596566975487068
_cell_length_c       11.859499654632444
_cell_angle_alpha    56.10713322711195
_cell_angle_beta     90.0
_cell_angle_gamma    90.0

_space_group_name_H-M_alt    "P 1"
_space_group_IT_number       1

loop_
  _space_group_symop_operation_xyz
  'x, y, z'

loop_
  _atom_site_type_symbol
  _atom_site_label
  _atom_site_symmetry_multiplicity
  _atom_site_fract_x
  _atom_site_fract_y
  _atom_site_fract_z
  _atom_site_occupancy
  Sn  Sn1       1.0  0.7502495224009331  0.20802749019342315  0.7327729662279456  1.0000
  Sn  Sn2       1.0  0.005441691869466636  0.44718322378257946  0.9020042617655787  1.0000
  Sn  Sn3       1.0  0.4563284389167384  0.8130659579300387  0.7056827538203174  1.0000
  Sn  Sn4       1.0  0.08449595030539181  0.16668188967658018  0.29018826027779876  1.0000
  P   P1        1.0  0.37936675874042997  0.7922735737289259  0.028355509496355007  1.0000
  P   P2        1.0  0.5671531374985339  0.3081179255787361  0.4482806182279093  1.0000
  P   P3        1.0  0.6578542934478461  0.7756909831444623  0.1000016942204602  1.0000
  P   P4        1.0  0.012594506662594415  0.5799278188403568  0.5338305862368037  1.0000
  S   S1        1.0  0.31968857121258853  0.12587500187347533  0.9077147567562424  1.0000
  S   S2        1.0  0.47391109724531655  0.7092408159644734  0.5108987737754731  1.0000
  S   S3        1.0  0.5922946761996405  0.8972984117567504  0.21958240275626617  1.0000
  S   S4        1.0  0.24095571861199477  0.5848709695313423  0.21929909024742794  1.0000
  S   S5        1.0  0.06591037464411997  0.8345839798459745  0.750662746066011  1.0000
  S   S6        1.0  0.8542111146588294  0.6784765798391919  0.3519078102730477  1.0000
  S   S7        1.0  0.8894563473888684  0.053379314715033994  0.6122445559724287  1.0000
  S   S8        1.0  0.7275794426158999  0.32470202756713185  0.21138584416819506  1.0000
  S   S9        1.0  0.8846930388239762  0.8930483181336734  0.9874211364064625  1.0000
  S   S10       1.0  0.2592655645557683  0.287941689239405  0.0648366999568577  1.0000
  S   S11       1.0  0.2539995125587975  0.40250008650235936  0.5977647230551596  1.0000
  S   S12       1.0  0.40157334769994346  0.06262443333277681  0.4259735708915302  1.0000
data_image131
_chemical_formula_structural       Sn4P4S12
_chemical_formula_sum              "Sn4 P4 S12"
_cell_length_a       7.57141576
_cell_length_b       6.596566975487068
_cell_length_c       11.859499654632444
_cell_angle_alpha    56.10713322711195
_cell_angle_beta     90.0
_cell_angle_gamma    90.0

_space_group_name_H-M_alt    "P 1"
_space_group_IT_number       1

loop_
  _space_group_symop_operation_xyz
  'x, y, z'

loop_
  _atom_site_type_symbol
  _atom_site_label
  _atom_site_symmetry_multiplicity
  _atom_site_fract_x
  _atom_site_fract_y
  _atom_site_fract_z
  _atom_site_occupancy
  Sn  Sn1       1.0  0.786487192277939  0.21786745611804426  0.7638623333194725  1.0000
  Sn  Sn2       1.0  0.055979647796519094  0.35671560989753104  0.8832560990563935  1.0000
  Sn  Sn3       1.0  0.462164948132941  0.8427312152570634  0.7337514205596325  1.0000
  Sn  Sn4       1.0  0.046819176442085185  0.15491776239342742  0.26907508366234595  1.0000
  P   P1        1.0  0.3266722728188094  0.758084288273562  0.05650871891365531  1.0000
  P   P2        1.0  0.5894004801302234  0.25236115536823966  0.5074043725127745  1.0000
  P   P3        1.0  0.6495821483623503  0.7201803656195729  0.11705933901137212  1.0000
  P   P4        1.0  0.009013047881436633  0.5946244239205973  0.5540748258260263  1.0000
  S   S1        1.0  0.37059686136239467  0.07160513356511156  0.8730204805391902  1.0000
  S   S2        1.0  0.4515113979302027  0.7095795682246058  0.5639882283515756  1.0000
  S   S3        1.0  0.6064587834943632  0.019198671119342148  0.1346156792972715  1.0000
  S   S4        1.0  0.16919607666614714  0.6376652911224939  0.2246854302329872  1.0000
  S   S5        1.0  0.03274108619885551  0.9888893772495106  0.6868819309686345  1.0000
  S   S6        1.0  0.8546670442308728  0.812440170751028  0.3668318281335153  1.0000
  S   S7        1.0  0.8404242568316981  0.02987291614464532  0.5799778777037161  1.0000
  S   S8        1.0  0.6969801488172087  0.33657639397187444  0.16985398366623317  1.0000
  S   S9        1.0  0.8830380445800886  0.7819435590834994  0.9859568972850623  1.0000
  S   S10       1.0  0.2440402403406745  0.3350343578681978  0.08899779455159251  1.0000
  S   S11       1.0  0.2254952973331085  0.4333212415949079  0.5416300687502775  1.0000
  S   S12       1.0  0.42146745783620143  0.05345337801544809  0.45213066252392964  1.0000
data_image132
_chemical_formula_structural       Sn4P4S12
_chemical_formula_sum              "Sn4 P4 S12"
_cell_length_a       7.57141576
_cell_length_b       6.596566975487068
_cell_length_c       11.859499654632444
_cell_angle_alpha    56.10713322711195
_cell_angle_beta     90.0
_cell_angle_gamma    90.0

_space_group_name_H-M_alt    "P 1"
_space_group_IT_number       1

loop_
  _space_group_symop_operation_xyz
  'x, y, z'

loop_
  _atom_site_type_symbol
  _atom_site_label
  _atom_site_symmetry_multiplicity
  _atom_site_fract_x
  _atom_site_fract_y
  _atom_site_fract_z
  _atom_site_occupancy
  Sn  Sn1       1.0  0.7675593099043436  0.19988055503340685  0.7752473556243444  1.0000
  Sn  Sn2       1.0  0.12713723557586554  0.3186897041707699  0.9199531745657386  1.0000
  Sn  Sn3       1.0  0.3869918336853416  0.9396379065055898  0.7208327376756487  1.0000
  Sn  Sn4       1.0  0.05665764863764617  0.1599970034996867  0.2620202408033004  1.0000
  P   P1        1.0  0.33756105089779287  0.7409744473077724  0.08710883160373736  1.0000
  P   P2        1.0  0.6175808920969135  0.26265737323083593  0.5609762169937104  1.0000
  P   P3        1.0  0.6492133553440156  0.7100979217605984  0.09749478301026458  1.0000
  P   P4        1.0  0.02852422817604296  0.5248949354449242  0.5518961486024387  1.0000
  S   S1        1.0  0.3383753240562899  0.10515014310654891  0.8786563501560661  1.0000
  S   S2        1.0  0.4513617565788602  0.7078776649514105  0.5905577283816159  1.0000
  S   S3        1.0  0.653937291432547  0.01696081061075505  0.11368827354187305  1.0000
  S   S4        1.0  0.16159833079929986  0.696168889828424  0.22319044255175646  1.0000
  S   S5        1.0  0.9834145180137344  0.8523188233975095  0.7096771452520847  1.0000
  S   S6        1.0  0.8511548447529702  0.6773708739324265  0.3962703262390092  1.0000
  S   S7        1.0  0.7637390341354565  0.9923975640693381  0.5370388537239779  1.0000
  S   S8        1.0  0.7437405178748799  0.37730873537549214  0.18574575211592248  1.0000
  S   S9        1.0  0.8745671693099152  0.7165435643916611  0.9848867838369095  1.0000
  S   S10       1.0  0.35296359827097334  0.5963358135920689  0.9661704242618893  1.0000
  S   S11       1.0  0.23220814037033932  0.3651992166105591  0.5230968134202036  1.0000
  S   S12       1.0  0.3809213200938817  0.016138770996803248  0.39873348256738916  1.0000
data_image133
_chemical_formula_structural       Sn4P4S12
_chemical_formula_sum              "Sn4 P4 S12"
_cell_length_a       7.57141576
_cell_length_b       6.596566975487068
_cell_length_c       11.859499654632444
_cell_angle_alpha    56.10713322711195
_cell_angle_beta     90.0
_cell_angle_gamma    90.0

_space_group_name_H-M_alt    "P 1"
_space_group_IT_number       1

loop_
  _space_group_symop_operation_xyz
  'x, y, z'

loop_
  _atom_site_type_symbol
  _atom_site_label
  _atom_site_symmetry_multiplicity
  _atom_site_fract_x
  _atom_site_fract_y
  _atom_site_fract_z
  _atom_site_occupancy
  Sn  Sn1       1.0  0.7121614008739905  0.2432418888842176  0.7625238273930869  1.0000
  Sn  Sn2       1.0  0.12699675664011378  0.3344084148301145  0.9167639050519714  1.0000
  Sn  Sn3       1.0  0.3004174755020944  0.9147248128075282  0.7285295371632803  1.0000
  Sn  Sn4       1.0  0.0662806921380074  0.09184509505753279  0.31065715385785664  1.0000
  P   P1        1.0  0.39233365942397125  0.7537401407297668  0.026598169060710164  1.0000
  P   P2        1.0  0.6052727757105183  0.45365649104031647  0.5088606644512941  1.0000
  P   P3        1.0  0.6985942212019267  0.7170903886976813  0.10911711347454497  1.0000
  P   P4        1.0  0.05346418658828319  0.45760890825668077  0.5847209597208336  1.0000
  S   S1        1.0  0.41712452214446283  0.10874837177543828  0.8650600865054382  1.0000
  S   S2        1.0  0.4362448214099492  0.7421630447948127  0.591603712589013  1.0000
  S   S3        1.0  0.6848519989523051  0.03138150130750983  0.09338542508311896  1.0000
  S   S4        1.0  0.18567563373336343  0.8109213130230393  0.102190900999828  1.0000
  S   S5        1.0  0.03895576565871972  0.7560701640902663  0.7522112251542639  1.0000
  S   S6        1.0  0.9201075980163349  0.6520999133234463  0.3896331295991933  1.0000
  S   S7        1.0  0.7172089312471844  0.2079690608833863  0.4907679775902033  1.0000
  S   S8        1.0  0.7641146306204223  0.37673091637134304  0.23174203071273292  1.0000
  S   S9        1.0  0.7751984883412255  0.6245328955533149  0.9752914385221703  1.0000
  S   S10       1.0  0.43012603008200256  0.4614098616002119  0.027211363563629742  1.0000
  S   S11       1.0  0.2676213525563885  0.3873818833252318  0.5031515316146562  1.0000
  S   S12       1.0  0.5257537857757755  0.9473456221063045  0.40014053738605115  1.0000
data_image134
_chemical_formula_structural       Sn4P4S12
_chemical_formula_sum              "Sn4 P4 S12"
_cell_length_a       7.57141576
_cell_length_b       6.596566975487068
_cell_length_c       11.859499654632444
_cell_angle_alpha    56.10713322711195
_cell_angle_beta     90.0
_cell_angle_gamma    90.0

_space_group_name_H-M_alt    "P 1"
_space_group_IT_number       1

loop_
  _space_group_symop_operation_xyz
  'x, y, z'

loop_
  _atom_site_type_symbol
  _atom_site_label
  _atom_site_symmetry_multiplicity
  _atom_site_fract_x
  _atom_site_fract_y
  _atom_site_fract_z
  _atom_site_occupancy
  Sn  Sn1       1.0  0.7438964343273107  0.26225851081085905  0.7500368647996065  1.0000
  Sn  Sn2       1.0  0.07587156645118065  0.18629588984095746  0.941690215133419  1.0000
  Sn  Sn3       1.0  0.2929745579723139  0.9201305893961218  0.6818475210148656  1.0000
  Sn  Sn4       1.0  0.11065029859091759  0.11944501669928215  0.35806728861701076  1.0000
  P   P1        1.0  0.38244862950809927  0.7032870398794593  0.027347421808105253  1.0000
  P   P2        1.0  0.6107874546831153  0.6225898952450315  0.43053636828080794  1.0000
  P   P3        1.0  0.7238043307640184  0.7245780695340491  0.09108791617106547  1.0000
  P   P4        1.0  0.07869233168689588  0.5114513148281689  0.5829990999474592  1.0000
  S   S1        1.0  0.3917261838599171  0.06352317327331458  0.8342627006306715  1.0000
  S   S2        1.0  0.4005686446753826  0.5684109747075248  0.6733131717373565  1.0000
  S   S3        1.0  0.7291625248255889  0.9962762068058317  0.11856873545179425  1.0000
  S   S4        1.0  0.2276961096405076  0.7883832568447905  0.1325981433563412  1.0000
  S   S5        1.0  0.932624427316551  0.9098719466846193  0.6501475305127506  1.0000
  S   S6        1.0  0.881840692919494  0.7287995268224907  0.42787169576435463  1.0000
  S   S7        1.0  0.7856736847985151  0.23621341477119975  0.5074129780905121  1.0000
  S   S8        1.0  0.7624302129804454  0.3315639738764392  0.309000890495019  1.0000
  S   S9        1.0  0.8251303282274783  0.857221432133155  0.9099868342576085  1.0000
  S   S10       1.0  0.35373373634769234  0.49587191357883786  0.9640050992863188  1.0000
  S   S11       1.0  0.24602687887253533  0.4373866242920652  0.46700074101721545  1.0000
  S   S12       1.0  0.5181176359968074  0.875025484924109  0.4718881816135121  1.0000
data_image135
_chemical_formula_structural       Sn4P4S12
_chemical_formula_sum              "Sn4 P4 S12"
_cell_length_a       7.57141576
_cell_length_b       6.596566975487068
_cell_length_c       11.859499654632444
_cell_angle_alpha    56.10713322711195
_cell_angle_beta     90.0
_cell_angle_gamma    90.0

_space_group_name_H-M_alt    "P 1"
_space_group_IT_number       1

loop_
  _space_group_symop_operation_xyz
  'x, y, z'

loop_
  _atom_site_type_symbol
  _atom_site_label
  _atom_site_symmetry_multiplicity
  _atom_site_fract_x
  _atom_site_fract_y
  _atom_site_fract_z
  _atom_site_occupancy
  Sn  Sn1       1.0  0.7382629321588488  0.24133488809660397  0.7462211326396856  1.0000
  Sn  Sn2       1.0  0.06279866700371128  0.0852955947804539  0.9932693657794016  1.0000
  Sn  Sn3       1.0  0.28045665098494943  0.9138999668303653  0.6866217875503605  1.0000
  Sn  Sn4       1.0  0.18359015881436072  0.2338921514811531  0.3424668175943991  1.0000
  P   P1        1.0  0.43347385170555947  0.6619863853590031  0.043607615368597696  1.0000
  P   P2        1.0  0.6141831094177256  0.8458157541897626  0.3232791637635842  1.0000
  P   P3        1.0  0.7248034006107107  0.6544177809592927  0.14644496092231524  1.0000
  P   P4        1.0  0.9652273054667898  0.4863213371896042  0.5422167166625266  1.0000
  S   S1        1.0  0.44372486000778677  0.07458294606029048  0.8308120149456844  1.0000
  S   S2        1.0  0.4579836939657632  0.5779360354537826  0.6419965130927293  1.0000
  S   S3        1.0  0.7163558438470498  0.9912867410505912  0.11093643710085507  1.0000
  S   S4        1.0  0.2859147633130905  0.7724485074285979  0.21371987790414546  1.0000
  S   S5        1.0  0.9616792996208509  0.9382344344657021  0.5929784628310895  1.0000
  S   S6        1.0  0.8588917888231471  0.7935898201493654  0.3881032650106026  1.0000
  S   S7        1.0  0.7648522674976127  0.1814338906855385  0.498046571640256  1.0000
  S   S8        1.0  0.7427144645435844  0.2915688627845877  0.2827489891140136  1.0000
  S   S9        1.0  0.8742075668584192  0.6712424575145648  0.9980471296435942  1.0000
  S   S10       1.0  0.242143600447162  0.54673012985415  0.9785620989615527  1.0000
  S   S11       1.0  0.1587671501162994  0.504984883765143  0.426748965817188  1.0000
  S   S12       1.0  0.4493548688251672  0.9130236700304883  0.44353913194549976  1.0000
data_image136
_chemical_formula_structural       Sn4P4S12
_chemical_formula_sum              "Sn4 P4 S12"
_cell_length_a       7.57141576
_cell_length_b       6.596566975487068
_cell_length_c       11.859499654632444
_cell_angle_alpha    56.10713322711195
_cell_angle_beta     90.0
_cell_angle_gamma    90.0

_space_group_name_H-M_alt    "P 1"
_space_group_IT_number       1

loop_
  _space_group_symop_operation_xyz
  'x, y, z'

loop_
  _atom_site_type_symbol
  _atom_site_label
  _atom_site_symmetry_multiplicity
  _atom_site_fract_x
  _atom_site_fract_y
  _atom_site_fract_z
  _atom_site_occupancy
  Sn  Sn1       1.0  0.7674642602835862  0.2941731495024813  0.7602291699121637  1.0000
  Sn  Sn2       1.0  0.07421365390002266  0.03305357555796751  0.006503782998784441  1.0000
  Sn  Sn3       1.0  0.31032802822801675  0.8244458131004342  0.7180535430874079  1.0000
  Sn  Sn4       1.0  0.17948804683504666  0.28924569570825515  0.2976229966938044  1.0000
  P   P1        1.0  0.4642073551528228  0.6439966083779018  0.055799833902824926  1.0000
  P   P2        1.0  0.5939672533726805  0.7388855833377868  0.2972981612150232  1.0000
  P   P3        1.0  0.7738389674665772  0.6319160393972107  0.08297756882956295  1.0000
  P   P4        1.0  0.9211181560684287  0.47594843650898866  0.505477739419876  1.0000
  S   S1        1.0  0.37615905764078317  0.006148907819451654  0.8892450565865556  1.0000
  S   S2        1.0  0.41497343257963554  0.5024091426194928  0.7120731320735852  1.0000
  S   S3        1.0  0.6721631813714151  0.14471357824466402  0.08930330831022154  1.0000
  S   S4        1.0  0.3689679746678808  0.8783569969536962  0.16267632491199688  1.0000
  S   S5        1.0  0.8650234702530715  0.9372580233588325  0.5732576844275078  1.0000
  S   S6        1.0  0.9297890049115316  0.8972584227545362  0.40196611616553374  1.0000
  S   S7        1.0  0.6696645669882048  0.38460873395000805  0.466835469818461  1.0000
  S   S8        1.0  0.6320900531504954  0.2230946776881224  0.21555645846788551  1.0000
  S   S9        1.0  0.8210661218131691  0.7502726824148933  0.866983410424744  1.0000
  S   S10       1.0  0.22656776216187835  0.4936244821155681  0.052333230762088734  1.0000
  S   S11       1.0  0.20215734662691787  0.45897266480140186  0.4695134710087008  1.0000
  S   S12       1.0  0.5198363895199345  0.855520153472778  0.565923086034047  1.0000
data_image137
_chemical_formula_structural       Sn4P4S12
_chemical_formula_sum              "Sn4 P4 S12"
_cell_length_a       7.57141576
_cell_length_b       6.596566975487068
_cell_length_c       11.859499654632444
_cell_angle_alpha    56.10713322711195
_cell_angle_beta     90.0
_cell_angle_gamma    90.0

_space_group_name_H-M_alt    "P 1"
_space_group_IT_number       1

loop_
  _space_group_symop_operation_xyz
  'x, y, z'

loop_
  _atom_site_type_symbol
  _atom_site_label
  _atom_site_symmetry_multiplicity
  _atom_site_fract_x
  _atom_site_fract_y
  _atom_site_fract_z
  _atom_site_occupancy
  Sn  Sn1       1.0  0.8389243220554878  0.344939972328719  0.8037606408930593  1.0000
  Sn  Sn2       1.0  0.12270951780458361  0.13024429925206338  0.9770929172045307  1.0000
  Sn  Sn3       1.0  0.2843328409637  0.7632179981998397  0.7487064150946267  1.0000
  Sn  Sn4       1.0  0.13286887443342427  0.3137593457455008  0.32095215106610686  1.0000
  P   P1        1.0  0.4309463989079554  0.7623742777412855  0.03986398699032208  1.0000
  P   P2        1.0  0.6143764751839952  0.7615994119059835  0.2500308299044816  1.0000
  P   P3        1.0  0.7285251051114777  0.5666602365519062  0.05207283804175808  1.0000
  P   P4        1.0  0.8909081393677549  0.3905978377642574  0.5323591905604149  1.0000
  S   S1        1.0  0.4134828149709644  0.024774979594392343  0.8249516183980331  1.0000
  S   S2        1.0  0.5010748364810395  0.39195278523683563  0.7075928675844378  1.0000
  S   S3        1.0  0.5806827310925319  0.13552521747049973  0.07719805342449465  1.0000
  S   S4        1.0  0.24228388243422652  0.7251698043325135  0.197446647128586  1.0000
  S   S5        1.0  0.9200481552628009  0.8434147728353293  0.5577929034643151  1.0000
  S   S6        1.0  0.9685004470746277  0.947582599590936  0.34949942137678874  1.0000
  S   S7        1.0  0.5680342887228157  0.46922404253665445  0.4459572215423777  1.0000
  S   S8        1.0  0.6123419167014228  0.2507718002345226  0.22278415001852503  1.0000
  S   S9        1.0  0.7206780173191053  0.68243484334286  0.8385232132370986  1.0000
  S   S10       1.0  0.2863925356662297  0.5201794466700101  0.002514035062739284  1.0000
  S   S11       1.0  0.17716795346804295  0.3561604427227574  0.5397272879557311  1.0000
  S   S12       1.0  0.6182943815832036  0.7815032664426026  0.5150107902853838  1.0000
data_image138
_chemical_formula_structural       Sn4P4S12
_chemical_formula_sum              "Sn4 P4 S12"
_cell_length_a       7.57141576
_cell_length_b       6.596566975487068
_cell_length_c       11.859499654632444
_cell_angle_alpha    56.10713322711195
_cell_angle_beta     90.0
_cell_angle_gamma    90.0

_space_group_name_H-M_alt    "P 1"
_space_group_IT_number       1

loop_
  _space_group_symop_operation_xyz
  'x, y, z'

loop_
  _atom_site_type_symbol
  _atom_site_label
  _atom_site_symmetry_multiplicity
  _atom_site_fract_x
  _atom_site_fract_y
  _atom_site_fract_z
  _atom_site_occupancy
  Sn  Sn1       1.0  0.8498230926024845  0.36533114032453784  0.7563539821909606  1.0000
  Sn  Sn2       1.0  0.21795287033016764  0.10639351114129991  0.02551311067658541  1.0000
  Sn  Sn3       1.0  0.3331195089164657  0.7616085620588146  0.7382743116306141  1.0000
  Sn  Sn4       1.0  0.013341552836208675  0.3147261970140199  0.3570110005579073  1.0000
  P   P1        1.0  0.4150660040179383  0.6969182896281603  0.07985332718751713  1.0000
  P   P2        1.0  0.651009726516053  0.7008655940160979  0.18680777541374466  1.0000
  P   P3        1.0  0.7280710141351585  0.6473727538049956  0.026058468995798303  1.0000
  P   P4        1.0  0.8617816966265397  0.31987002260740505  0.544657512886311  1.0000
  S   S1        1.0  0.3511632924270305  0.15293597489520083  0.8180458662051153  1.0000
  S   S2        1.0  0.5462025673765403  0.605948479638448  0.6277003763318253  1.0000
  S   S3        1.0  0.5552751578665559  0.08359578175679783  0.0975776157100725  1.0000
  S   S4        1.0  0.14227478270280483  0.7205800994655713  0.2465553223209694  1.0000
  S   S5        1.0  0.9182806740209137  0.7685168149509566  0.48348661262815346  1.0000
  S   S6        1.0  0.9598488717492473  0.9951146431816507  0.2953844844078355  1.0000
  S   S7        1.0  0.6519831061450414  0.46208441452130367  0.4087423319603407  1.0000
  S   S8        1.0  0.5841234641321871  0.2738328253409852  0.20052735150569223  1.0000
  S   S9        1.0  0.6720039969899837  0.5822510993297234  0.8765457625006075  1.0000
  S   S10       1.0  0.2309766377865239  0.4854040427175783  0.05143994895429449  1.0000
  S   S11       1.0  0.23683674227867824  0.20411678008330036  0.5824217656228274  1.0000
  S   S12       1.0  0.63533416131038  0.9196416448264814  0.5288037836514217  1.0000
data_image139
_chemical_formula_structural       Sn4P4S12
_chemical_formula_sum              "Sn4 P4 S12"
_cell_length_a       7.57141576
_cell_length_b       6.596566975487068
_cell_length_c       11.859499654632444
_cell_angle_alpha    56.10713322711195
_cell_angle_beta     90.0
_cell_angle_gamma    90.0

_space_group_name_H-M_alt    "P 1"
_space_group_IT_number       1

loop_
  _space_group_symop_operation_xyz
  'x, y, z'

loop_
  _atom_site_type_symbol
  _atom_site_label
  _atom_site_symmetry_multiplicity
  _atom_site_fract_x
  _atom_site_fract_y
  _atom_site_fract_z
  _atom_site_occupancy
  Sn  Sn1       1.0  0.8841206616834602  0.3941738082153583  0.7636700118599951  1.0000
  Sn  Sn2       1.0  0.2400586597355432  0.046932102390994324  0.04844909226727381  1.0000
  Sn  Sn3       1.0  0.34360204611101813  0.7396544063125481  0.7778252403429253  1.0000
  Sn  Sn4       1.0  0.9875287455138673  0.36223918026221025  0.31403430662515086  1.0000
  P   P1        1.0  0.3921666367073193  0.7082273136541473  0.03623564362484658  1.0000
  P   P2        1.0  0.5947639714015863  0.7691502413581681  0.1811564384213454  1.0000
  P   P3        1.0  0.6565121326236075  0.569708792045095  0.06794130053022739  1.0000
  P   P4        1.0  0.8493110693900376  0.3046660803094954  0.5474955018856015  1.0000
  S   S1        1.0  0.318882552888091  0.10165272589453167  0.8334584842816798  1.0000
  S   S2        1.0  0.5349450056486371  0.6842271832745119  0.5399310450326469  1.0000
  S   S3        1.0  0.5546280586729835  0.12612510076313388  0.08050101873941846  1.0000
  S   S4        1.0  0.26610216204378645  0.8709269086361185  0.2975072474389533  1.0000
  S   S5        1.0  0.984518631307733  0.6029291753929209  0.5294016161442161  1.0000
  S   S6        1.0  0.9840381273451544  0.930487373482004  0.23309522237722893  1.0000
  S   S7        1.0  0.6232998303212336  0.33535641363371793  0.4531452076164986  1.0000
  S   S8        1.0  0.49781454695246063  0.25997564555686925  0.2812703452869456  1.0000
  S   S9        1.0  0.6569223242398248  0.7560845605606616  0.8403744315858273  1.0000
  S   S10       1.0  0.167646334175088  0.49616228711827326  0.05874329350403462  1.0000
  S   S11       1.0  0.2244681738556552  0.12167864818268348  0.5620598318476352  1.0000
  S   S12       1.0  0.6785732747235915  0.0019387739462273853  0.4117267820875392  1.0000
data_image140
_chemical_formula_structural       Sn4P4S12
_chemical_formula_sum              "Sn4 P4 S12"
_cell_length_a       7.57141576
_cell_length_b       6.596566975487068
_cell_length_c       11.859499654632444
_cell_angle_alpha    56.10713322711195
_cell_angle_beta     90.0
_cell_angle_gamma    90.0

_space_group_name_H-M_alt    "P 1"
_space_group_IT_number       1

loop_
  _space_group_symop_operation_xyz
  'x, y, z'

loop_
  _atom_site_type_symbol
  _atom_site_label
  _atom_site_symmetry_multiplicity
  _atom_site_fract_x
  _atom_site_fract_y
  _atom_site_fract_z
  _atom_site_occupancy
  Sn  Sn1       1.0  0.8950683087574395  0.32679934202862415  0.8036019396493291  1.0000
  Sn  Sn2       1.0  0.26811655202182827  0.10533175937765571  0.06794762298371805  1.0000
  Sn  Sn3       1.0  0.37115742382325967  0.7550366322284465  0.7685903579885803  1.0000
  Sn  Sn4       1.0  0.005089804373189728  0.3848973009866811  0.2901085193095661  1.0000
  P   P1        1.0  0.34022263503681566  0.6934226460100499  0.0374404518314999  1.0000
  P   P2        1.0  0.5604567216914084  0.8955260141011523  0.15915808496287992  1.0000
  P   P3        1.0  0.6671948492497582  0.571215008807686  0.03272998336333368  1.0000
  P   P4        1.0  0.7991648863953351  0.15970623505744094  0.6004791881563751  1.0000
  S   S1        1.0  0.27583564507499947  0.13699804677820726  0.8456989415074783  1.0000
  S   S2        1.0  0.5346180010685497  0.6683300546209588  0.5382650664132692  1.0000
  S   S3        1.0  0.6541343420150805  0.21135445683859366  0.02399385304132553  1.0000
  S   S4        1.0  0.2855117707299296  0.9279967562901167  0.3339288750521758  1.0000
  S   S5        1.0  0.9712473349332252  0.4008828004578562  0.5786363036469161  1.0000
  S   S6        1.0  0.9664430771509027  0.7996527443407058  0.22251649449318722  1.0000
  S   S7        1.0  0.5550109358969213  0.363255388936808  0.5227223071710332  1.0000
  S   S8        1.0  0.4397625036281225  0.25636872594829063  0.2603308089309797  1.0000
  S   S9        1.0  0.6868585619182297  0.9129896928323435  0.824492188299246  1.0000
  S   S10       1.0  0.1348131700195967  0.48845955092475457  0.021208277000424713  1.0000
  S   S11       1.0  0.1164249180647794  0.035993253980126205  0.47731526021006854  1.0000
  S   S12       1.0  0.6814563116874595  0.008183815915597973  0.37744676597986504  1.0000
data_image141
_chemical_formula_structural       Sn4P4S12
_chemical_formula_sum              "Sn4 P4 S12"
_cell_length_a       7.57141576
_cell_length_b       6.596566975487068
_cell_length_c       11.859499654632444
_cell_angle_alpha    56.10713322711195
_cell_angle_beta     90.0
_cell_angle_gamma    90.0

_space_group_name_H-M_alt    "P 1"
_space_group_IT_number       1

loop_
  _space_group_symop_operation_xyz
  'x, y, z'

loop_
  _atom_site_type_symbol
  _atom_site_label
  _atom_site_symmetry_multiplicity
  _atom_site_fract_x
  _atom_site_fract_y
  _atom_site_fract_z
  _atom_site_occupancy
  Sn  Sn1       1.0  0.9341317918926925  0.31407388759967314  0.8049391816933893  1.0000
  Sn  Sn2       1.0  0.24686003385645972  0.12158216404390343  0.08090091778783215  1.0000
  Sn  Sn3       1.0  0.4470532114280954  0.7506673673403211  0.7725867569259846  1.0000
  Sn  Sn4       1.0  0.0013104539567269254  0.3509590357814786  0.2905099796390422  1.0000
  P   P1        1.0  0.35308449476489345  0.5571035077102983  0.02512395009343157  1.0000
  P   P2        1.0  0.644057840536813  0.9576079285516361  0.1887116345752857  1.0000
  P   P3        1.0  0.6557592936152346  0.6110069334668585  0.014276465434153807  1.0000
  P   P4        1.0  0.738822963147665  0.15408983999968448  0.5612634408847064  1.0000
  S   S1        1.0  0.2394080582988305  0.2415129094959252  0.8063803728015265  1.0000
  S   S2        1.0  0.7227574400444617  0.7709208401798873  0.5502830229790248  1.0000
  S   S3        1.0  0.6349975752331475  0.3311254900404923  0.9798789901839684  1.0000
  S   S4        1.0  0.20540669226012587  0.8846805245505496  0.37244029774220166  1.0000
  S   S5        1.0  0.9722712933915677  0.3972034583499185  0.5196230159415812  1.0000
  S   S6        1.0  0.8542390931596706  0.8673904609949278  0.14310102460122226  1.0000
  S   S7        1.0  0.5019958682157596  0.2830806578272605  0.5467240197534421  1.0000
  S   S8        1.0  0.3519899087550993  0.16997291882983045  0.3474012630628218  1.0000
  S   S9        1.0  0.6861511213836807  0.9676676225451887  0.8460141503835243  1.0000
  S   S10       1.0  0.03475276053198295  0.5580436918567742  0.99183801441128  1.0000
  S   S11       1.0  0.09320454436035716  0.9083676708057746  0.5472600686758216  1.0000
  S   S12       1.0  0.6482427443011971  0.998462301373897  0.3450330881727066  1.0000
data_image142
_chemical_formula_structural       Sn4P4S12
_chemical_formula_sum              "Sn4 P4 S12"
_cell_length_a       7.57141576
_cell_length_b       6.596566975487068
_cell_length_c       11.859499654632444
_cell_angle_alpha    56.10713322711195
_cell_angle_beta     90.0
_cell_angle_gamma    90.0

_space_group_name_H-M_alt    "P 1"
_space_group_IT_number       1

loop_
  _space_group_symop_operation_xyz
  'x, y, z'

loop_
  _atom_site_type_symbol
  _atom_site_label
  _atom_site_symmetry_multiplicity
  _atom_site_fract_x
  _atom_site_fract_y
  _atom_site_fract_z
  _atom_site_occupancy
  Sn  Sn1       1.0  0.9557668023175792  0.27649774514988534  0.8247796217292579  1.0000
  Sn  Sn2       1.0  0.24893613891662203  0.037289476317043935  0.1206081836185559  1.0000
  Sn  Sn3       1.0  0.46257551682952064  0.7888074360523067  0.7313722021157902  1.0000
  Sn  Sn4       1.0  0.9951931996737978  0.3666764485258807  0.29259841548837057  1.0000
  P   P1        1.0  0.2947286027244596  0.5762953973867863  0.05309712781755471  1.0000
  P   P2        1.0  0.6331159522419623  0.9053076598659244  0.15082873004653474  1.0000
  P   P3        1.0  0.6671526106077427  0.6151666891015705  0.005279542155406969  1.0000
  P   P4        1.0  0.7393653689044637  0.1940600270205796  0.6006631027137023  1.0000
  S   S1        1.0  0.286497479022342  0.15203444507199193  0.8807656943281916  1.0000
  S   S2        1.0  0.7852408153845434  0.8874898483747199  0.5870987384596793  1.0000
  S   S3        1.0  0.6535256401997629  0.3955980701795263  0.936237130044878  1.0000
  S   S4        1.0  0.20300083915716569  0.6604553711500267  0.49371806807300045  1.0000
  S   S5        1.0  0.9377217879484594  0.4325296372179377  0.5143609088087809  1.0000
  S   S6        1.0  0.8847161890242892  0.9488546684621088  0.07770981375187956  1.0000
  S   S7        1.0  0.48889284476788814  0.3143327515572685  0.49474405671340266  1.0000
  S   S8        1.0  0.2999670409842714  0.28988025976230636  0.25397521668666845  1.0000
  S   S9        1.0  0.6271010841891239  0.9919386449480759  0.8353971270768117  1.0000
  S   S10       1.0  0.9736036728643707  0.6770671281778358  0.9708696960102776  1.0000
  S   S11       1.0  0.07928836842059704  0.7773304039818361  0.6197639135315964  1.0000
  S   S12       1.0  0.6567113151003336  0.09541528148186978  0.23532852626852718  1.0000
data_image143
_chemical_formula_structural       Sn4P4S12
_chemical_formula_sum              "Sn4 P4 S12"
_cell_length_a       7.57141576
_cell_length_b       6.596566975487068
_cell_length_c       11.859499654632444
_cell_angle_alpha    56.10713322711195
_cell_angle_beta     90.0
_cell_angle_gamma    90.0

_space_group_name_H-M_alt    "P 1"
_space_group_IT_number       1

loop_
  _space_group_symop_operation_xyz
  'x, y, z'

loop_
  _atom_site_type_symbol
  _atom_site_label
  _atom_site_symmetry_multiplicity
  _atom_site_fract_x
  _atom_site_fract_y
  _atom_site_fract_z
  _atom_site_occupancy
  Sn  Sn1       1.0  0.9782258715540807  0.29830772146621043  0.8254785714299587  1.0000
  Sn  Sn2       1.0  0.27224078707760513  0.9738716475432196  0.15343123380216872  1.0000
  Sn  Sn3       1.0  0.4074830221375812  0.8275994335608261  0.6952820401376316  1.0000
  Sn  Sn4       1.0  0.9761557360697547  0.38742619060030475  0.3023710340184871  1.0000
  P   P1        1.0  0.2778493482363259  0.6415200625444912  0.040893371922664644  1.0000
  P   P2        1.0  0.6180893354836522  0.7261839600691562  0.21654356726530918  1.0000
  P   P3        1.0  0.6562654727426062  0.6968844401565053  0.9486068788848567  1.0000
  P   P4        1.0  0.739566395955211  0.13845843207722947  0.5559105808984837  1.0000
  S   S1        1.0  0.29796716889324326  0.09990821641076231  0.879041353220112  1.0000
  S   S2        1.0  0.7704791220169618  0.8904010159451126  0.5156251271565039  1.0000
  S   S3        1.0  0.5932596524064094  0.4287812216123039  0.9224798061296984  1.0000
  S   S4        1.0  0.25772788007292297  0.647876019982294  0.533266591259419  1.0000
  S   S5        1.0  0.9457065674073744  0.40817206612432183  0.5425690735870563  1.0000
  S   S6        1.0  0.8998752940559118  0.8267689649651184  0.19219797254379895  1.0000
  S   S7        1.0  0.5465091563326104  0.4118347434008466  0.47996143144460623  1.0000
  S   S8        1.0  0.31264220231381334  0.4222725267888541  0.2501934024364936  1.0000
  S   S9        1.0  0.6611265213774326  0.03468059492437581  0.8022973377456091  1.0000
  S   S10       1.0  0.9711488270212059  0.685198618029053  0.9417165695527902  1.0000
  S   S11       1.0  0.13993861301046143  0.7088314780545797  0.6512122472081601  1.0000
  S   S12       1.0  0.6261618606275616  0.07765507420140197  0.210111875477895  1.0000
data_image144
_chemical_formula_structural       Sn4P4S12
_chemical_formula_sum              "Sn4 P4 S12"
_cell_length_a       7.57141576
_cell_length_b       6.596566975487068
_cell_length_c       11.859499654632444
_cell_angle_alpha    56.10713322711195
_cell_angle_beta     90.0
_cell_angle_gamma    90.0

_space_group_name_H-M_alt    "P 1"
_space_group_IT_number       1

loop_
  _space_group_symop_operation_xyz
  'x, y, z'

loop_
  _atom_site_type_symbol
  _atom_site_label
  _atom_site_symmetry_multiplicity
  _atom_site_fract_x
  _atom_site_fract_y
  _atom_site_fract_z
  _atom_site_occupancy
  Sn  Sn1       1.0  0.9961874494245281  0.31596354491392487  0.8464729777631492  1.0000
  Sn  Sn2       1.0  0.33640590684087046  0.9841165700577273  0.15769071806985693  1.0000
  Sn  Sn3       1.0  0.38178350428863594  0.8277912331176731  0.7088033813637667  1.0000
  Sn  Sn4       1.0  0.9388783416787279  0.37563522557470846  0.2860177969332328  1.0000
  P   P1        1.0  0.2881085260245973  0.6682355532348774  0.9899613998724546  1.0000
  P   P2        1.0  0.6092356164624045  0.6092739969610088  0.2643007308781823  1.0000
  P   P3        1.0  0.6556811933448807  0.6860107396622838  0.9613448968838528  1.0000
  P   P4        1.0  0.7622643792015082  0.1307273833742951  0.5599785916920244  1.0000
  S   S1        1.0  0.3112836075695533  0.06628886759040475  0.9281793787584472  1.0000
  S   S2        1.0  0.6235414002193373  0.8254615767672336  0.5665999888654635  1.0000
  S   S3        1.0  0.6110052694441941  0.4924312113827334  0.867971933039315  1.0000
  S   S4        1.0  0.28811726499803103  0.7415360082961664  0.5201257632140068  1.0000
  S   S5        1.0  0.014536260567385325  0.2848396228371355  0.5415091893637601  1.0000
  S   S6        1.0  0.8854473332206685  0.9299860520142559  0.18299023775647008  1.0000
  S   S7        1.0  0.5031293871648808  0.3702604381611257  0.4530938397253077  1.0000
  S   S8        1.0  0.2696217656704154  0.5342342840951793  0.20532949009744694  1.0000
  S   S9        1.0  0.6822169259834786  0.015405587281619898  0.7653739352728515  1.0000
  S   S10       1.0  0.031441609803790405  0.6309703683624734  0.9615632673311264  1.0000
  S   S11       1.0  0.020834500612671145  0.8385863601272128  0.5507978860383497  1.0000
  S   S12       1.0  0.6837106877562116  0.9615352373932642  0.27860651352611754  1.0000
data_image145
_chemical_formula_structural       Sn4P4S12
_chemical_formula_sum              "Sn4 P4 S12"
_cell_length_a       7.57141576
_cell_length_b       6.596566975487068
_cell_length_c       11.859499654632444
_cell_angle_alpha    56.10713322711195
_cell_angle_beta     90.0
_cell_angle_gamma    90.0

_space_group_name_H-M_alt    "P 1"
_space_group_IT_number       1

loop_
  _space_group_symop_operation_xyz
  'x, y, z'

loop_
  _atom_site_type_symbol
  _atom_site_label
  _atom_site_symmetry_multiplicity
  _atom_site_fract_x
  _atom_site_fract_y
  _atom_site_fract_z
  _atom_site_occupancy
  Sn  Sn1       1.0  0.02456964189181906  0.3848517833404146  0.8386999580286671  1.0000
  Sn  Sn2       1.0  0.2963678986628868  0.0731317585104092  0.16100691751073823  1.0000
  Sn  Sn3       1.0  0.3559135961144975  0.8167508144640505  0.7259009201498772  1.0000
  Sn  Sn4       1.0  0.9355649027624443  0.4210971784283106  0.2134978633262819  1.0000
  P   P1        1.0  0.3219985586639854  0.6353504479699574  0.029562886324193367  1.0000
  P   P2        1.0  0.566261607928019  0.6093238445776532  0.2793449384491824  1.0000
  P   P3        1.0  0.6054433239021049  0.6705147867579273  0.9398162298838649  1.0000
  P   P4        1.0  0.7479829867800529  0.06094751975577766  0.607892970970512  1.0000
  S   S1        1.0  0.29090732758813287  0.1267967307128528  0.9095031115301742  1.0000
  S   S2        1.0  0.6389323639117879  0.7708281407445117  0.6093066512762657  1.0000
  S   S3        1.0  0.6621983585184601  0.4070921061392574  0.9125676384429486  1.0000
  S   S4        1.0  0.18941771599221788  0.8365382384543804  0.4161191455001638  1.0000
  S   S5        1.0  0.9733145900368201  0.24295592376917347  0.5296580410586844  1.0000
  S   S6        1.0  0.997955657056439  0.7672870471149813  0.24399143249349226  1.0000
  S   S7        1.0  0.5119625001433059  0.2642466336488842  0.5005373865097268  1.0000
  S   S8        1.0  0.3428267876229165  0.4566347932778002  0.2402847806272259  1.0000
  S   S9        1.0  0.7846007924857821  0.9942057705219602  0.8085406745016974  1.0000
  S   S10       1.0  0.07442145310207926  0.5674075677044181  0.9951025650732335  1.0000
  S   S11       1.0  0.9306171353290027  0.8323555183125295  0.4846839671187466  1.0000
  S   S12       1.0  0.7510841616430237  0.8251609498577853  0.3144794953890293  1.0000
data_image146
_chemical_formula_structural       Sn4P4S12
_chemical_formula_sum              "Sn4 P4 S12"
_cell_length_a       7.57141576
_cell_length_b       6.596566975487068
_cell_length_c       11.859499654632444
_cell_angle_alpha    56.10713322711195
_cell_angle_beta     90.0
_cell_angle_gamma    90.0

_space_group_name_H-M_alt    "P 1"
_space_group_IT_number       1

loop_
  _space_group_symop_operation_xyz
  'x, y, z'

loop_
  _atom_site_type_symbol
  _atom_site_label
  _atom_site_symmetry_multiplicity
  _atom_site_fract_x
  _atom_site_fract_y
  _atom_site_fract_z
  _atom_site_occupancy
  Sn  Sn1       1.0  0.011278675519414824  0.4916816580175314  0.7576037187828977  1.0000
  Sn  Sn2       1.0  0.2718696765032158  0.10728230299610164  0.16706463506952474  1.0000
  Sn  Sn3       1.0  0.3669544814881904  0.8397736889805032  0.7314259401843706  1.0000
  Sn  Sn4       1.0  0.8818853570574425  0.4173514736824424  0.19061371365956262  1.0000
  P   P1        1.0  0.34287386144073856  0.6326671968823512  0.0994613351760749  1.0000
  P   P2        1.0  0.6839109326423093  0.43455185343339275  0.37072751370437995  1.0000
  P   P3        1.0  0.6140873005610853  0.6668127111738826  0.9209744576574919  1.0000
  P   P4        1.0  0.7033267198805491  0.06853633583550599  0.625588879333688  1.0000
  S   S1        1.0  0.3766220349477727  0.08371864829377751  0.9564428906804996  1.0000
  S   S2        1.0  0.6625139934500428  0.7423034041444322  0.6439212780515028  1.0000
  S   S3        1.0  0.6761149414067729  0.2924639049192286  0.013835002596014398  1.0000
  S   S4        1.0  0.22913778628736967  0.7475610484545162  0.4394094471998636  1.0000
  S   S5        1.0  0.9423393938615194  0.17736808031119664  0.5281862621900655  1.0000
  S   S6        1.0  0.06293229241526266  0.8527249793407159  0.13730238125476735  1.0000
  S   S7        1.0  0.4831198144198024  0.2610523449080855  0.6457614691767699  1.0000
  S   S8        1.0  0.194014114719673  0.3377050120570616  0.2845085418804416  1.0000
  S   S9        1.0  0.78724122382395  0.04185943235597211  0.8084818408985404  1.0000
  S   S10       1.0  0.18197964840688652  0.5574798689213702  0.9630563073534752  1.0000
  S   S11       1.0  0.9652677190124554  0.7472478404504622  0.45910613493140595  1.0000
  S   S12       1.0  0.7826998204091329  0.8248261628316197  0.27286644545400085  1.0000
data_image147
_chemical_formula_structural       Sn4P4S12
_chemical_formula_sum              "Sn4 P4 S12"
_cell_length_a       7.57141576
_cell_length_b       6.596566975487068
_cell_length_c       11.859499654632444
_cell_angle_alpha    56.10713322711195
_cell_angle_beta     90.0
_cell_angle_gamma    90.0

_space_group_name_H-M_alt    "P 1"
_space_group_IT_number       1

loop_
  _space_group_symop_operation_xyz
  'x, y, z'

loop_
  _atom_site_type_symbol
  _atom_site_label
  _atom_site_symmetry_multiplicity
  _atom_site_fract_x
  _atom_site_fract_y
  _atom_site_fract_z
  _atom_site_occupancy
  Sn  Sn1       1.0  0.9774225668839146  0.5037667245786406  0.7686615402490479  1.0000
  Sn  Sn2       1.0  0.23112272442213921  0.05897484944870124  0.16625434228115826  1.0000
  Sn  Sn3       1.0  0.3287825371781184  0.8258851122560119  0.6921614938061186  1.0000
  Sn  Sn4       1.0  0.8910651968586931  0.37123095266565226  0.19074060375198498  1.0000
  P   P1        1.0  0.23491772437769692  0.7728291293933565  0.07035020445196553  1.0000
  P   P2        1.0  0.7217779870954565  0.4638498641414446  0.3719011950367249  1.0000
  P   P3        1.0  0.6693559943029966  0.695900795836229  0.9950037918206822  1.0000
  P   P4        1.0  0.7391253239661274  0.07310743003024242  0.6581183660253321  1.0000
  S   S1        1.0  0.4175148595270941  0.047807059517646744  0.9977921138742333  1.0000
  S   S2        1.0  0.6600748327643707  0.782262392660533  0.6338424976472872  1.0000
  S   S3        1.0  0.7286092835284421  0.4148044118067027  0.9718884089262461  1.0000
  S   S4        1.0  0.25818684398145847  0.6637599381489825  0.43572163168724354  1.0000
  S   S5        1.0  0.9855306339585509  0.1736661306874907  0.571875021196635  1.0000
  S   S6        1.0  0.9726976065649049  0.9897296682763072  0.023361244142184046  1.0000
  S   S7        1.0  0.4854513606745017  0.21181667912936267  0.6627815197762026  1.0000
  S   S8        1.0  0.34191166163456166  0.5192303000606656  0.2475356099749606  1.0000
  S   S9        1.0  0.8475205626106505  0.963703293249399  0.8370949791525957  1.0000
  S   S10       1.0  0.20866070947942905  0.6565732911600077  0.9566020756873124  1.0000
  S   S11       1.0  0.9965703935355974  0.6401911589261656  0.49965004983308337  1.0000
  S   S12       1.0  0.8056510286738126  0.7643736439733617  0.3457671598406955  1.0000
data_image148
_chemical_formula_structural       Sn4P4S12
_chemical_formula_sum              "Sn4 P4 S12"
_cell_length_a       7.57141576
_cell_length_b       6.596566975487068
_cell_length_c       11.859499654632444
_cell_angle_alpha    56.10713322711195
_cell_angle_beta     90.0
_cell_angle_gamma    90.0

_space_group_name_H-M_alt    "P 1"
_space_group_IT_number       1

loop_
  _space_group_symop_operation_xyz
  'x, y, z'

loop_
  _atom_site_type_symbol
  _atom_site_label
  _atom_site_symmetry_multiplicity
  _atom_site_fract_x
  _atom_site_fract_y
  _atom_site_fract_z
  _atom_site_occupancy
  Sn  Sn1       1.0  0.9581300958762194  0.5010256396236312  0.7737620729311663  1.0000
  Sn  Sn2       1.0  0.18437464739473364  0.11674120938785193  0.16758206806065737  1.0000
  Sn  Sn3       1.0  0.3048840317000706  0.8338569763817882  0.6322695390181559  1.0000
  Sn  Sn4       1.0  0.9076087141980383  0.314064820036551  0.2682104761617575  1.0000
  P   P1        1.0  0.30008055768775344  0.8458998764740899  0.026285907528926202  1.0000
  P   P2        1.0  0.6483962699295558  0.39713594712924594  0.4459208147397602  1.0000
  P   P3        1.0  0.6467250880414604  0.6632712445678736  0.9844327787636181  1.0000
  P   P4        1.0  0.773667663677033  0.05988911264160317  0.6367240983962554  1.0000
  S   S1        1.0  0.45168898586006323  0.15897478287194566  0.9374756338661476  1.0000
  S   S2        1.0  0.6988651204158564  0.7268850921183618  0.6828340208145695  1.0000
  S   S3        1.0  0.7047169435552912  0.3506395047174502  0.02630111690187727  1.0000
  S   S4        1.0  0.26175066006323644  0.6068526806432235  0.450914112226831  1.0000
  S   S5        1.0  0.04324504809943763  0.11759553019504448  0.5663696317891722  1.0000
  S   S6        1.0  0.03952781915669945  0.8567166604193277  0.07925901125099039  1.0000
  S   S7        1.0  0.5207533777620585  0.2995708283018739  0.6139371954191077  1.0000
  S   S8        1.0  0.3939704571266982  0.534489984378762  0.20003009373218905  1.0000
  S   S9        1.0  0.8307833116390436  0.9617187430616752  0.8298978206006413  1.0000
  S   S10       1.0  0.2285958559234489  0.765266606641059  0.8902754818002945  1.0000
  S   S11       1.0  0.014719653733926122  0.7372737824068357  0.4610984605973939  1.0000
  S   S12       1.0  0.7858341744844213  0.7338622598996445  0.3554953053180048  1.0000
data_image149
_chemical_formula_structural       Sn4P4S12
_chemical_formula_sum              "Sn4 P4 S12"
_cell_length_a       7.57141576
_cell_length_b       6.596566975487068
_cell_length_c       11.859499654632444
_cell_angle_alpha    56.10713322711195
_cell_angle_beta     90.0
_cell_angle_gamma    90.0

_space_group_name_H-M_alt    "P 1"
_space_group_IT_number       1

loop_
  _space_group_symop_operation_xyz
  'x, y, z'

loop_
  _atom_site_type_symbol
  _atom_site_label
  _atom_site_symmetry_multiplicity
  _atom_site_fract_x
  _atom_site_fract_y
  _atom_site_fract_z
  _atom_site_occupancy
  Sn  Sn1       1.0  0.954070343558773  0.4386392517516482  0.8015151947289975  1.0000
  Sn  Sn2       1.0  0.2323224588695414  0.12938095769940894  0.14398284835032396  1.0000
  Sn  Sn3       1.0  0.31744436922543784  0.8053686928023114  0.6039276318461975  1.0000
  Sn  Sn4       1.0  0.8680783695898481  0.39096414070101576  0.28751214918966694  1.0000
  P   P1        1.0  0.3143200551766244  0.8101958833036246  0.039084065418934465  1.0000
  P   P2        1.0  0.5555593458399308  0.321663785969857  0.4822487617698311  1.0000
  P   P3        1.0  0.584064426735721  0.48793041217425537  0.9871176668952619  1.0000
  P   P4        1.0  0.7108284634397937  0.08724441169579088  0.6337114911685393  1.0000
  S   S1        1.0  0.4567892205622539  0.21069486944844606  0.9864484747372245  1.0000
  S   S2        1.0  0.6830857519765752  0.8055655953399885  0.6083639806269562  1.0000
  S   S3        1.0  0.72281268826562  0.16782045482195196  0.10827845618382244  1.0000
  S   S4        1.0  0.334974949090406  0.9029409516700009  0.3943863817336435  1.0000
  S   S5        1.0  0.9707149648493194  0.1431422581127482  0.5455322726395974  1.0000
  S   S6        1.0  0.05790220569403104  0.7888747511430577  0.1237820369344939  1.0000
  S   S7        1.0  0.5313246447705909  0.2737442289316989  0.7023230092474276  1.0000
  S   S8        1.0  0.4953094959311155  0.5002008982460319  0.16758418694542487  1.0000
  S   S9        1.0  0.877292498071667  0.0257770973893147  0.7953609493848579  1.0000
  S   S10       1.0  0.25935493489433736  0.9425144397891255  0.8441995352228862  1.0000
  S   S11       1.0  0.05367668187248494  0.7368528735012387  0.47880904087951137  1.0000
  S   S12       1.0  0.6676002371494865  0.6084634799629758  0.3100910368067429  1.0000
data_image150
_chemical_formula_structural       Sn4P4S12
_chemical_formula_sum              "Sn4 P4 S12"
_cell_length_a       7.57141576
_cell_length_b       6.596566975487068
_cell_length_c       11.859499654632444
_cell_angle_alpha    56.10713322711195
_cell_angle_beta     90.0
_cell_angle_gamma    90.0

_space_group_name_H-M_alt    "P 1"
_space_group_IT_number       1

loop_
  _space_group_symop_operation_xyz
  'x, y, z'

loop_
  _atom_site_type_symbol
  _atom_site_label
  _atom_site_symmetry_multiplicity
  _atom_site_fract_x
  _atom_site_fract_y
  _atom_site_fract_z
  _atom_site_occupancy
  Sn  Sn1       1.0  0.9411766417284577  0.4655273874476451  0.8064222598981187  1.0000
  Sn  Sn2       1.0  0.12401394059393911  0.25385775121333465  0.08919051814708533  1.0000
  Sn  Sn3       1.0  0.357178149450726  0.739451605832244  0.6825475741991158  1.0000
  Sn  Sn4       1.0  0.8237620214938306  0.30608444301049487  0.3167434719749025  1.0000
  P   P1        1.0  0.30750670365055033  0.8464629532153587  0.032449485504920925  1.0000
  P   P2        1.0  0.41065894948371706  0.19328208585157802  0.5401521766768642  1.0000
  P   P3        1.0  0.724182866658152  0.37132280739448076  0.9895071106676051  1.0000
  P   P4        1.0  0.8809413962681611  0.0414465231701528  0.6479744326355382  1.0000
  S   S1        1.0  0.5371411957217507  0.2996335412096489  0.8801345976570801  1.0000
  S   S2        1.0  0.7239583299608313  0.7858211056311145  0.6466020501712183  1.0000
  S   S3        1.0  0.8462439879924886  0.030205609185340432  0.13997595351178185  1.0000
  S   S4        1.0  0.34959003636222  0.9284102247353008  0.3170989847205108  1.0000
  S   S5        1.0  0.9660568277377178  0.36200042117528036  0.4744256503727846  1.0000
  S   S6        1.0  0.126048454589204  0.6476612645228728  0.18207140406750677  1.0000
  S   S7        1.0  0.6274579043593936  0.2161532931749086  0.6676967809209584  1.0000
  S   S8        1.0  0.5425103559175577  0.6702701688236063  0.022763759408320317  1.0000
  S   S9        1.0  0.9176700834234104  0.9912518032324277  0.828431017695223  1.0000
  S   S10       1.0  0.1555179465628319  0.05818464903660555  0.7864963952300165  1.0000
  S   S11       1.0  0.1850116519546469  0.7648388702345345  0.46716318824412684  1.0000
  S   S12       1.0  0.44773607036895924  0.5988910492781987  0.36993514278332373  1.0000
data_image151
_chemical_formula_structural       Sn4P4S12
_chemical_formula_sum              "Sn4 P4 S12"
_cell_length_a       7.57141576
_cell_length_b       6.596566975487068
_cell_length_c       11.859499654632444
_cell_angle_alpha    56.10713322711195
_cell_angle_beta     90.0
_cell_angle_gamma    90.0

_space_group_name_H-M_alt    "P 1"
_space_group_IT_number       1

loop_
  _space_group_symop_operation_xyz
  'x, y, z'

loop_
  _atom_site_type_symbol
  _atom_site_label
  _atom_site_symmetry_multiplicity
  _atom_site_fract_x
  _atom_site_fract_y
  _atom_site_fract_z
  _atom_site_occupancy
  Sn  Sn1       1.0  0.9190413117124696  0.4946727642127682  0.7863343589823903  1.0000
  Sn  Sn2       1.0  0.13620352562703508  0.3077204384354295  0.04906943886529961  1.0000
  Sn  Sn3       1.0  0.3454156112457947  0.6339316493936332  0.7428657652524446  1.0000
  Sn  Sn4       1.0  0.8168241134104129  0.24670772355988546  0.3532168639474671  1.0000
  P   P1        1.0  0.22973700637826383  0.9171794725177218  0.01566019771174617  1.0000
  P   P2        1.0  0.49606721573629  0.3443163710867361  0.5282112818925305  1.0000
  P   P3        1.0  0.679133923137669  0.20568283985195854  0.11087160917105406  1.0000
  P   P4        1.0  0.8992731085662973  0.9999369078577837  0.6093045806600242  1.0000
  S   S1        1.0  0.5988201905749699  0.25123575500347584  0.9151456226495445  1.0000
  S   S2        1.0  0.7038144199332728  0.8651260676734353  0.5200390807494887  1.0000
  S   S3        1.0  0.8479278450253991  0.9141107475315731  0.1763074104776257  1.0000
  S   S4        1.0  0.36221572190166784  0.020642725433454565  0.2679305319449368  1.0000
  S   S5        1.0  0.014552828245981418  0.34028933208204193  0.5132305043064023  1.0000
  S   S6        1.0  0.20864481528347323  0.5549893460437052  0.20250637206079003  1.0000
  S   S7        1.0  0.6867872133292886  0.3112327691497788  0.6458892176908761  1.0000
  S   S8        1.0  0.3927742303315498  0.7420966017757218  0.9465678202743956  1.0000
  S   S9        1.0  0.9401216139767281  0.9446969845775091  0.914018698392804  1.0000
  S   S10       1.0  0.15909846009362028  0.19317610205840546  0.7755589265050974  1.0000
  S   S11       1.0  0.16533443546202553  0.9961581850393418  0.4293267165236021  1.0000
  S   S12       1.0  0.4774921268183878  0.5052918323367976  0.2896282925670757  1.0000
data_image152
_chemical_formula_structural       Sn4P4S12
_chemical_formula_sum              "Sn4 P4 S12"
_cell_length_a       7.57141576
_cell_length_b       6.596566975487068
_cell_length_c       11.859499654632444
_cell_angle_alpha    56.10713322711195
_cell_angle_beta     90.0
_cell_angle_gamma    90.0

_space_group_name_H-M_alt    "P 1"
_space_group_IT_number       1

loop_
  _space_group_symop_operation_xyz
  'x, y, z'

loop_
  _atom_site_type_symbol
  _atom_site_label
  _atom_site_symmetry_multiplicity
  _atom_site_fract_x
  _atom_site_fract_y
  _atom_site_fract_z
  _atom_site_occupancy
  Sn  Sn1       1.0  0.8901605804073786  0.5152019117034661  0.7469905889381516  1.0000
  Sn  Sn2       1.0  0.11168429026068738  0.36636022019578074  0.05409093687539364  1.0000
  Sn  Sn3       1.0  0.3361380701415854  0.5986616181291722  0.74286462447102  1.0000
  Sn  Sn4       1.0  0.8342679404300282  0.3230011515046042  0.30228848482921383  1.0000
  P   P1        1.0  0.32720163257714074  0.7980114769467236  0.08491818099304993  1.0000
  P   P2        1.0  0.589853757733007  0.5495920304323607  0.4285747611707146  1.0000
  P   P3        1.0  0.6384578070124161  0.13185560194308343  0.11120142370140164  1.0000
  P   P4        1.0  0.8527484211041018  0.10286876551742154  0.6333177171836077  1.0000
  S   S1        1.0  0.6012100570787962  0.30791742602046734  0.890632162496354  1.0000
  S   S2        1.0  0.7281011951077974  0.9231199896119532  0.5483843056577993  1.0000
  S   S3        1.0  0.8285051103563625  0.8725289510063197  0.21967524315600162  1.0000
  S   S4        1.0  0.3315254747807928  0.9872203852241251  0.2638769695751269  1.0000
  S   S5        1.0  0.0984608492004916  0.17535158232839984  0.5473256820934509  1.0000
  S   S6        1.0  0.22062116511731844  0.5649783186562332  0.2636512699762928  1.0000
  S   S7        1.0  0.6346918035019034  0.259801039693237  0.6638044966694956  1.0000
  S   S8        1.0  0.40579600101806146  0.6841750666527668  0.9277416494209796  1.0000
  S   S9        1.0  0.030117925462096462  0.864809530510074  0.9920780806832183  1.0000
  S   S10       1.0  0.10779735832668313  0.1654294073563603  0.7845808584971894  1.0000
  S   S11       1.0  0.13281647574575126  0.9817512842644299  0.40702517389119486  1.0000
  S   S12       1.0  0.5067472815271996  0.29551637363509475  0.4080118638161958  1.0000
data_image153
_chemical_formula_structural       Sn4P4S12
_chemical_formula_sum              "Sn4 P4 S12"
_cell_length_a       7.57141576
_cell_length_b       6.596566975487068
_cell_length_c       11.859499654632444
_cell_angle_alpha    56.10713322711195
_cell_angle_beta     90.0
_cell_angle_gamma    90.0

_space_group_name_H-M_alt    "P 1"
_space_group_IT_number       1

loop_
  _space_group_symop_operation_xyz
  'x, y, z'

loop_
  _atom_site_type_symbol
  _atom_site_label
  _atom_site_symmetry_multiplicity
  _atom_site_fract_x
  _atom_site_fract_y
  _atom_site_fract_z
  _atom_site_occupancy
  Sn  Sn1       1.0  0.8708192484395785  0.47674828297490457  0.6999775942871667  1.0000
  Sn  Sn2       1.0  0.058263028190841615  0.3600467260828726  0.08479748733373538  1.0000
  Sn  Sn3       1.0  0.3253516628711026  0.5930651673222436  0.7633880605335783  1.0000
  Sn  Sn4       1.0  0.8296896935876238  0.3063285253148733  0.3011863396846194  1.0000
  P   P1        1.0  0.44616578352383895  0.8071033098513121  0.1041068724439602  1.0000
  P   P2        1.0  0.6522702873707638  0.6456489889872554  0.3691808326102751  1.0000
  P   P3        1.0  0.7025174203473151  0.1878391442345101  0.10784558964286885  1.0000
  P   P4        1.0  0.8641264416733268  0.18778704859618306  0.5941420052692018  1.0000
  S   S1        1.0  0.5867356850763314  0.18912191448238014  0.9538395473917896  1.0000
  S   S2        1.0  0.7109979865389113  0.9863452997417979  0.5486793323890515  1.0000
  S   S3        1.0  0.8597574015500129  0.7990610847325814  0.22923104644581294  1.0000
  S   S4        1.0  0.2380894579817282  0.058002264099301634  0.2433527125297427  1.0000
  S   S5        1.0  0.11288272484608572  0.2168428502793146  0.4949108736966339  1.0000
  S   S6        1.0  0.22695389832880997  0.5128299829394667  0.25521733782860023  1.0000
  S   S7        1.0  0.5684871661656684  0.45932414993329346  0.6122883073165581  1.0000
  S   S8        1.0  0.5410991793738857  0.604242373790165  0.02763789785590376  1.0000
  S   S9        1.0  0.09080837880999493  0.9493743042866298  0.02987857293643481  1.0000
  S   S10       1.0  0.11044136711127672  0.0528979723846862  0.8291301181906062  1.0000
  S   S11       1.0  0.1542008471621582  0.8193652026822248  0.43923066631697216  1.0000
  S   S12       1.0  0.5016382655357012  0.4451422314262923  0.3234081946506646  1.0000
data_image154
_chemical_formula_structural       Sn4P4S12
_chemical_formula_sum              "Sn4 P4 S12"
_cell_length_a       7.57141576
_cell_length_b       6.596566975487068
_cell_length_c       11.859499654632444
_cell_angle_alpha    56.10713322711195
_cell_angle_beta     90.0
_cell_angle_gamma    90.0

_space_group_name_H-M_alt    "P 1"
_space_group_IT_number       1

loop_
  _space_group_symop_operation_xyz
  'x, y, z'

loop_
  _atom_site_type_symbol
  _atom_site_label
  _atom_site_symmetry_multiplicity
  _atom_site_fract_x
  _atom_site_fract_y
  _atom_site_fract_z
  _atom_site_occupancy
  Sn  Sn1       1.0  0.8540658781517314  0.4599121518625069  0.7244204059520195  1.0000
  Sn  Sn2       1.0  0.08024638272134199  0.3245594146880826  0.06861955545581941  1.0000
  Sn  Sn3       1.0  0.3403713850506209  0.5573757078589981  0.7797014078578179  1.0000
  Sn  Sn4       1.0  0.8628825514152412  0.263870726950587  0.30500088572964146  1.0000
  P   P1        1.0  0.42464818181902625  0.7118966618538944  0.13615167349241578  1.0000
  P   P2        1.0  0.6535581689650886  0.5723296416830823  0.42420584482714585  1.0000
  P   P3        1.0  0.694067281368483  0.16656043525185432  0.11444134660916255  1.0000
  P   P4        1.0  0.9016031234566101  0.37076831805259164  0.5163930485115048  1.0000
  S   S1        1.0  0.5559062198499569  0.18563308034635484  0.9538971185814215  1.0000
  S   S2        1.0  0.7455035121806194  0.06321207416066545  0.5518744165798637  1.0000
  S   S3        1.0  0.7701939714406659  0.8383487808023096  0.22396106298048218  1.0000
  S   S4        1.0  0.36281192775229415  0.9919585106101192  0.33054358596455574  1.0000
  S   S5        1.0  0.143970720922556  0.17861331775492922  0.504993645811294  1.0000
  S   S6        1.0  0.16428876632344425  0.6480726782464166  0.19709771254094738  1.0000
  S   S7        1.0  0.5157729991544013  0.5068299068103279  0.5844104399558597  1.0000
  S   S8        1.0  0.5030316459266284  0.5963493198448586  0.024868025689835038  1.0000
  S   S9        1.0  0.06472636450834779  0.05744379319964329  0.9722084751692377  1.0000
  S   S10       1.0  0.11126416128594363  0.2051915082601349  0.763739993569859  1.0000
  S   S11       1.0  0.09175047880859535  0.8784625550174594  0.3770435071174735  1.0000
  S   S12       1.0  0.469360893634311  0.4317500686300738  0.38263041395408437  1.0000
data_image155
_chemical_formula_structural       Sn4P4S12
_chemical_formula_sum              "Sn4 P4 S12"
_cell_length_a       7.57141576
_cell_length_b       6.596566975487068
_cell_length_c       11.859499654632444
_cell_angle_alpha    56.10713322711195
_cell_angle_beta     90.0
_cell_angle_gamma    90.0

_space_group_name_H-M_alt    "P 1"
_space_group_IT_number       1

loop_
  _space_group_symop_operation_xyz
  'x, y, z'

loop_
  _atom_site_type_symbol
  _atom_site_label
  _atom_site_symmetry_multiplicity
  _atom_site_fract_x
  _atom_site_fract_y
  _atom_site_fract_z
  _atom_site_occupancy
  Sn  Sn1       1.0  0.778251686527417  0.5093339646214614  0.7291338866883281  1.0000
  Sn  Sn2       1.0  0.08565083506172289  0.36571272798737087  0.010900232156572105  1.0000
  Sn  Sn3       1.0  0.32891186680243084  0.5171257175789614  0.8057175092978226  1.0000
  Sn  Sn4       1.0  0.9041457051757862  0.18452444195611528  0.3329266076728942  1.0000
  P   P1        1.0  0.47808673404469215  0.5904374231452787  0.27308746104911996  1.0000
  P   P2        1.0  0.6161047018532961  0.6918994068055389  0.4253988406569773  1.0000
  P   P3        1.0  0.7158374263692721  0.3833963692596421  0.03652735239396875  1.0000
  P   P4        1.0  0.8724771829314498  0.41263278325528674  0.4763125405067867  1.0000
  S   S1        1.0  0.5770071519181816  0.14867105360154786  0.9668419782326524  1.0000
  S   S2        1.0  0.7302320974733885  0.06873673431516265  0.5891136275506971  1.0000
  S   S3        1.0  0.7369112428385106  0.712832424825244  0.20246216163376687  1.0000
  S   S4        1.0  0.3409344484528642  0.9687594785065091  0.4190472021291793  1.0000
  S   S5        1.0  0.09407209820910763  0.12964972753153678  0.5242765703309267  1.0000
  S   S6        1.0  0.27213046284839804  0.8229998469779531  0.1447103107632685  1.0000
  S   S7        1.0  0.5151560555478004  0.42622448896299897  0.6053034639598703  1.0000
  S   S8        1.0  0.5137779917938521  0.6741033028410249  0.9980283517824495  1.0000
  S   S9        1.0  0.019119736730449866  0.9933548414916831  0.9382952396842474  1.0000
  S   S10       1.0  0.16500866096844824  0.18267305232161166  0.7834043269792875  1.0000
  S   S11       1.0  0.21508977694123868  0.052226310880782556  0.24263965114513586  1.0000
  S   S12       1.0  0.46474705456154664  0.257880262833437  0.4291950806501441  1.0000
data_image156
_chemical_formula_structural       Sn4P4S12
_chemical_formula_sum              "Sn4 P4 S12"
_cell_length_a       7.57141576
_cell_length_b       6.596566975487068
_cell_length_c       11.859499654632444
_cell_angle_alpha    56.10713322711195
_cell_angle_beta     90.0
_cell_angle_gamma    90.0

_space_group_name_H-M_alt    "P 1"
_space_group_IT_number       1

loop_
  _space_group_symop_operation_xyz
  'x, y, z'

loop_
  _atom_site_type_symbol
  _atom_site_label
  _atom_site_symmetry_multiplicity
  _atom_site_fract_x
  _atom_site_fract_y
  _atom_site_fract_z
  _atom_site_occupancy
  Sn  Sn1       1.0  0.7390640941118464  0.5608231732670703  0.7564308058488068  1.0000
  Sn  Sn2       1.0  0.07053903041832665  0.47724339491269996  0.97742324877001  1.0000
  Sn  Sn3       1.0  0.35798765859632414  0.4495128410842323  0.8033719102395673  1.0000
  Sn  Sn4       1.0  0.9318785069959007  0.03033003546597008  0.36245047692132965  1.0000
  P   P1        1.0  0.5168856892848457  0.5107734565734694  0.32658066731737256  1.0000
  P   P2        1.0  0.5402083679048616  0.7585029380323867  0.39934966689353385  1.0000
  P   P3        1.0  0.6915004758887842  0.49543203593146024  0.9916042079791462  1.0000
  P   P4        1.0  0.8078440701637658  0.5463093671240266  0.41323201116742425  1.0000
  S   S1        1.0  0.6193396181506317  0.16706376853125215  0.040137427939510584  1.0000
  S   S2        1.0  0.7680014768799851  0.1085185066979319  0.5815870387636478  1.0000
  S   S3        1.0  0.9087785599186521  0.5070082959309119  0.2611682779762563  1.0000
  S   S4        1.0  0.2587549113247216  0.8599114436155155  0.35517170454078445  1.0000
  S   S5        1.0  0.03168331185050211  0.2499446122948617  0.5421727495577613  1.0000
  S   S6        1.0  0.2954537751490225  0.8640395417522726  0.10283879334587544  1.0000
  S   S7        1.0  0.4961351315016447  0.513598245668381  0.6080737724371351  1.0000
  S   S8        1.0  0.478923748076564  0.5784859165802609  0.0220430498305626  1.0000
  S   S9        1.0  0.9505258055283812  0.22452392851785058  0.8870331994815865  1.0000
  S   S10       1.0  0.14553230112458604  0.05948997180943825  0.8148680726539577  1.0000
  S   S11       1.0  0.32123888306335874  0.11680897735478024  0.14841244964515354  1.0000
  S   S12       1.0  0.4836188878769492  0.18681199363555345  0.4813968525461667  1.0000
data_image157
_chemical_formula_structural       Sn4P4S12
_chemical_formula_sum              "Sn4 P4 S12"
_cell_length_a       7.57141576
_cell_length_b       6.596566975487068
_cell_length_c       11.859499654632444
_cell_angle_alpha    56.10713322711195
_cell_angle_beta     90.0
_cell_angle_gamma    90.0

_space_group_name_H-M_alt    "P 1"
_space_group_IT_number       1

loop_
  _space_group_symop_operation_xyz
  'x, y, z'

loop_
  _atom_site_type_symbol
  _atom_site_label
  _atom_site_symmetry_multiplicity
  _atom_site_fract_x
  _atom_site_fract_y
  _atom_site_fract_z
  _atom_site_occupancy
  Sn  Sn1       1.0  0.7424998130899342  0.5805091510008451  0.7421771235177813  1.0000
  Sn  Sn2       1.0  0.08617007531127552  0.5652075408696793  0.9795205462735237  1.0000
  Sn  Sn3       1.0  0.32837279202690767  0.43055493745630224  0.8024169640142886  1.0000
  Sn  Sn4       1.0  0.9610153329327136  0.028504113684725486  0.3428354370287388  1.0000
  P   P1        1.0  0.5611808499732691  0.43902914919803093  0.37238602170234253  1.0000
  P   P2        1.0  0.5034366355478245  0.7628836986148984  0.38547424959666365  1.0000
  P   P3        1.0  0.6179687523286568  0.570168809970495  0.9566667327266714  1.0000
  P   P4        1.0  0.7924150080917493  0.46545745086363094  0.45914924555556935  1.0000
  S   S1        1.0  0.6432840817264551  0.21128447713688847  0.020199873985715433  1.0000
  S   S2        1.0  0.8595580665413776  0.09105401775642483  0.6302426688985034  1.0000
  S   S3        1.0  0.9685387871646273  0.49241467670543826  0.25715322358664244  1.0000
  S   S4        1.0  0.22639298404816394  0.707029626188888  0.35746053383386556  1.0000
  S   S5        1.0  0.0727836539208413  0.3387162724349597  0.5717790026052137  1.0000
  S   S6        1.0  0.2541271189467915  0.8836613403138311  0.01632120446040179  1.0000
  S   S7        1.0  0.5636951620556103  0.47431091861420194  0.5877135610283435  1.0000
  S   S8        1.0  0.36939124567033566  0.5445851000054563  0.08119342534040208  1.0000
  S   S9        1.0  0.9614168150349369  0.23718927991764616  0.859964780011808  1.0000
  S   S10       1.0  0.0992649799205465  0.019275885041871617  0.7804106877182689  1.0000
  S   S11       1.0  0.286065089025864  0.042008693542277875  0.18933106860795812  1.0000
  S   S12       1.0  0.4619671126932592  0.14279256768040793  0.5729319280042109  1.0000
data_image158
_chemical_formula_structural       Sn4P4S12
_chemical_formula_sum              "Sn4 P4 S12"
_cell_length_a       7.57141576
_cell_length_b       6.596566975487068
_cell_length_c       11.859499654632444
_cell_angle_alpha    56.10713322711195
_cell_angle_beta     90.0
_cell_angle_gamma    90.0

_space_group_name_H-M_alt    "P 1"
_space_group_IT_number       1

loop_
  _space_group_symop_operation_xyz
  'x, y, z'

loop_
  _atom_site_type_symbol
  _atom_site_label
  _atom_site_symmetry_multiplicity
  _atom_site_fract_x
  _atom_site_fract_y
  _atom_site_fract_z
  _atom_site_occupancy
  Sn  Sn1       1.0  0.7738058815038003  0.6840920051664552  0.697546590937123  1.0000
  Sn  Sn2       1.0  0.08263595965449877  0.5130900669907663  0.034265246874206866  1.0000
  Sn  Sn3       1.0  0.3380369555249722  0.4313086265905621  0.832808549256691  1.0000
  Sn  Sn4       1.0  0.9725980614715752  0.00863820080222492  0.3387622715947706  1.0000
  P   P1        1.0  0.42878533619296544  0.27048395449068685  0.4770243300684166  1.0000
  P   P2        1.0  0.5423499498345242  0.777595959648361  0.32068987316317477  1.0000
  P   P3        1.0  0.5884509552139892  0.6027298103855545  0.9251403212096679  1.0000
  P   P4        1.0  0.671770329031068  0.42272686172538504  0.44007687294865844  1.0000
  S   S1        1.0  0.7172045728104419  0.25559876269174464  0.016895764293257898  1.0000
  S   S2        1.0  0.8613716494002049  0.14920898293429188  0.5845481410115402  1.0000
  S   S3        1.0  0.9971168500321564  0.4497355487983259  0.2605712124878268  1.0000
  S   S4        1.0  0.31002576051619596  0.621281267720442  0.31265926868324134  1.0000
  S   S5        1.0  0.028392721809477828  0.3947099649807194  0.5185104950478613  1.0000
  S   S6        1.0  0.30004939863011293  0.9095223140848185  0.9346037478474002  1.0000
  S   S7        1.0  0.49503528759659265  0.512481042922223  0.5734978277764466  1.0000
  S   S8        1.0  0.4477063295970658  0.5714052028987879  0.09590589404201988  1.0000
  S   S9        1.0  0.9767318948578187  0.2992363601929909  0.8647754882207621  1.0000
  S   S10       1.0  0.061219830821629295  0.040046669806633295  0.7996210361549435  1.0000
  S   S11       1.0  0.21467320808745283  0.0737163355683974  0.18996276049961436  1.0000
  S   S12       1.0  0.41388923246260956  0.9474888262976966  0.6477467481332639  1.0000
data_image159
_chemical_formula_structural       Sn4P4S12
_chemical_formula_sum              "Sn4 P4 S12"
_cell_length_a       7.57141576
_cell_length_b       6.596566975487068
_cell_length_c       11.859499654632444
_cell_angle_alpha    56.10713322711195
_cell_angle_beta     90.0
_cell_angle_gamma    90.0

_space_group_name_H-M_alt    "P 1"
_space_group_IT_number       1

loop_
  _space_group_symop_operation_xyz
  'x, y, z'

loop_
  _atom_site_type_symbol
  _atom_site_label
  _atom_site_symmetry_multiplicity
  _atom_site_fract_x
  _atom_site_fract_y
  _atom_site_fract_z
  _atom_site_occupancy
  Sn  Sn1       1.0  0.747061757736542  0.6746804603104211  0.6640427622543632  1.0000
  Sn  Sn2       1.0  0.04684887299997431  0.477955199757911  0.08168565747179941  1.0000
  Sn  Sn3       1.0  0.34284131956588587  0.439793376791231  0.8550532202554395  1.0000
  Sn  Sn4       1.0  0.9890673809742438  0.9600698530664161  0.3832540181483415  1.0000
  P   P1        1.0  0.3910716026980726  0.291405411588778  0.44834577707225326  1.0000
  P   P2        1.0  0.46974320161091887  0.8392582371865365  0.2613225613543612  1.0000
  P   P3        1.0  0.7146635209000188  0.5693161362393985  0.9549685863220678  1.0000
  P   P4        1.0  0.6620522563482862  0.4119617724528088  0.38988235802265475  1.0000
  S   S1        1.0  0.804696972127001  0.17391090186951708  0.042320106229665866  1.0000
  S   S2        1.0  0.8235776800950626  0.26968425297217025  0.5664223710307025  1.0000
  S   S3        1.0  0.9113027857886621  0.4953474594027203  0.23930266720370383  1.0000
  S   S4        1.0  0.26262829833069073  0.5922221024746989  0.28130455273100874  1.0000
  S   S5        1.0  0.030154158810980332  0.45133714973230715  0.5659323820772448  1.0000
  S   S6        1.0  0.4122469443744814  0.9486020714259422  0.8640635882690181  1.0000
  S   S7        1.0  0.461199012662223  0.5848337495533377  0.5131140456879655  1.0000
  S   S8        1.0  0.4742497579887568  0.656145944232366  0.044026384867419166  1.0000
  S   S9        1.0  0.9753603714661537  0.41792803299706816  0.8832050235175826  1.0000
  S   S10       1.0  0.14686332922978396  0.8296360057272189  0.8595369798029567  1.0000
  S   S11       1.0  0.26949535562119953  0.1152436609359  0.14503034767955614  1.0000
  S   S12       1.0  0.39950806736434363  0.9642828013798534  0.602720725232609  1.0000
data_image160
_chemical_formula_structural       Sn4P4S12
_chemical_formula_sum              "Sn4 P4 S12"
_cell_length_a       7.57141576
_cell_length_b       6.596566975487068
_cell_length_c       11.859499654632444
_cell_angle_alpha    56.10713322711195
_cell_angle_beta     90.0
_cell_angle_gamma    90.0

_space_group_name_H-M_alt    "P 1"
_space_group_IT_number       1

loop_
  _space_group_symop_operation_xyz
  'x, y, z'

loop_
  _atom_site_type_symbol
  _atom_site_label
  _atom_site_symmetry_multiplicity
  _atom_site_fract_x
  _atom_site_fract_y
  _atom_site_fract_z
  _atom_site_occupancy
  Sn  Sn1       1.0  0.7361829606078487  0.6242915642176137  0.6502617886053276  1.0000
  Sn  Sn2       1.0  0.05070184835598135  0.4734984887182785  0.0788532632045478  1.0000
  Sn  Sn3       1.0  0.31466611334134  0.41360651756151734  0.8691692424032376  1.0000
  Sn  Sn4       1.0  0.986621002378339  0.943692010821695  0.3655371936765314  1.0000
  P   P1        1.0  0.3587609176267365  0.42032113933108695  0.4436175588694422  1.0000
  P   P2        1.0  0.45886983455255514  0.8026926895611046  0.30081731284290236  1.0000
  P   P3        1.0  0.6956651035591035  0.4868156198499725  0.9909727764897732  1.0000
  P   P4        1.0  0.7269616152043021  0.26163836606991125  0.4543691983522915  1.0000
  S   S1        1.0  0.8497331119045788  0.10290643579973713  0.05109993566700899  1.0000
  S   S2        1.0  0.8320720327071954  0.2515820964788871  0.6570357684506465  1.0000
  S   S3        1.0  0.8207794689468114  0.5943573569303569  0.28628307958668453  1.0000
  S   S4        1.0  0.23569329090183244  0.615419754437426  0.269833880757179  1.0000
  S   S5        1.0  0.021835879342449335  0.5233464011331125  0.5884087181134245  1.0000
  S   S6        1.0  0.47245087374641814  0.9959033143839434  0.8404977959262292  1.0000
  S   S7        1.0  0.3711054538502727  0.6847551889660848  0.4921154363421756  1.0000
  S   S8        1.0  0.5939489044517496  0.7860282424005969  0.013860276156721474  1.0000
  S   S9        1.0  0.9208045888163844  0.41547314085937537  0.8723032998244384  1.0000
  S   S10       1.0  0.22785388906706072  0.8342251377789814  0.8064465605401802  1.0000
  S   S11       1.0  0.3447949649692671  0.15705829044142772  0.13147541483550162  1.0000
  S   S12       1.0  0.4200546534673024  0.03207680584162176  0.5428003929099849  1.0000
data_image161
_chemical_formula_structural       Sn4P4S12
_chemical_formula_sum              "Sn4 P4 S12"
_cell_length_a       7.57141576
_cell_length_b       6.596566975487068
_cell_length_c       11.859499654632444
_cell_angle_alpha    56.10713322711195
_cell_angle_beta     90.0
_cell_angle_gamma    90.0

_space_group_name_H-M_alt    "P 1"
_space_group_IT_number       1

loop_
  _space_group_symop_operation_xyz
  'x, y, z'

loop_
  _atom_site_type_symbol
  _atom_site_label
  _atom_site_symmetry_multiplicity
  _atom_site_fract_x
  _atom_site_fract_y
  _atom_site_fract_z
  _atom_site_occupancy
  Sn  Sn1       1.0  0.6744474453458398  0.6129573178916992  0.6220556657047959  1.0000
  Sn  Sn2       1.0  0.09873662330325605  0.5086700073036896  0.0907252267361519  1.0000
  Sn  Sn3       1.0  0.28228228828594637  0.4507050323616054  0.8198064082035221  1.0000
  Sn  Sn4       1.0  0.9313720594552224  0.9307782734342694  0.3659873876918176  1.0000
  P   P1        1.0  0.3984053309427476  0.448417931435092  0.4722655067862891  1.0000
  P   P2        1.0  0.5228135101504864  0.864014730718875  0.28403365494022964  1.0000
  P   P3        1.0  0.6212189650727539  0.5493842969134064  0.9636042469847621  1.0000
  P   P4        1.0  0.8051059387297089  0.2956329276663496  0.45148658767251026  1.0000
  S   S1        1.0  0.9137162413786744  0.08565974520043595  0.9993333332390892  1.0000
  S   S2        1.0  0.8475691358763807  0.13687910870058806  0.6924064163615083  1.0000
  S   S3        1.0  0.8504528065247059  0.6354764241761046  0.288145631124941  1.0000
  S   S4        1.0  0.35314974667159094  0.612353662833309  0.2524833682699467  1.0000
  S   S5        1.0  0.060822302278485674  0.4086444871902894  0.6193760456000437  1.0000
  S   S6        1.0  0.5010954647039907  0.9268698853312597  0.8236780625496998  1.0000
  S   S7        1.0  0.37053455335517954  0.7011085085537853  0.5314780901393591  1.0000
  S   S8        1.0  0.5999272542118013  0.7625393308401373  0.03357700505102956  1.0000
  S   S9        1.0  0.9815049991981175  0.4253443203440745  0.889280746908051  1.0000
  S   S10       1.0  0.1933971849947762  0.8067439235257757  0.8606586041813898  1.0000
  S   S11       1.0  0.3156183876701208  0.07083823172685011  0.2369868779075368  1.0000
  S   S12       1.0  0.3927246877700348  0.0674683137585208  0.5837432515015115  1.0000
data_image162
_chemical_formula_structural       Sn4P4S12
_chemical_formula_sum              "Sn4 P4 S12"
_cell_length_a       7.57141576
_cell_length_b       6.596566975487068
_cell_length_c       11.859499654632444
_cell_angle_alpha    56.10713322711195
_cell_angle_beta     90.0
_cell_angle_gamma    90.0

_space_group_name_H-M_alt    "P 1"
_space_group_IT_number       1

loop_
  _space_group_symop_operation_xyz
  'x, y, z'

loop_
  _atom_site_type_symbol
  _atom_site_label
  _atom_site_symmetry_multiplicity
  _atom_site_fract_x
  _atom_site_fract_y
  _atom_site_fract_z
  _atom_site_occupancy
  Sn  Sn1       1.0  0.6682544408003912  0.6011113241609713  0.62896411067293  1.0000
  Sn  Sn2       1.0  0.14945530894633752  0.5157866529277033  0.10889363252503383  1.0000
  Sn  Sn3       1.0  0.2749545422323975  0.47251533245239064  0.8060519752423613  1.0000
  Sn  Sn4       1.0  0.9345635649277101  0.9676140826622779  0.3613839628276511  1.0000
  P   P1        1.0  0.543809581105997  0.3978781701385432  0.49610012777098134  1.0000
  P   P2        1.0  0.4431650094102639  0.8527770144956279  0.22740391623471706  1.0000
  P   P3        1.0  0.6047911489674781  0.5031976902507894  0.9955811346095865  1.0000
  P   P4        1.0  0.7714475378469918  0.28438512076545286  0.43960210158825863  1.0000
  S   S1        1.0  0.940242783118642  0.0733267864962095  0.014962610966716916  1.0000
  S   S2        1.0  0.8703964100956915  0.21514084305439146  0.6434162352474528  1.0000
  S   S3        1.0  0.864799961725537  0.6456128172130147  0.25587523894175745  1.0000
  S   S4        1.0  0.4233287964888636  0.5060887274542261  0.30999355141019397  1.0000
  S   S5        1.0  0.04200429082183123  0.4877474672737762  0.5525020650776162  1.0000
  S   S6        1.0  0.5438435380118554  0.8489232467827845  0.8280756163794566  1.0000
  S   S7        1.0  0.36766093425729585  0.6012117436848997  0.5565106731975068  1.0000
  S   S8        1.0  0.5291321450777178  0.632672663228033  0.11108846451235843  1.0000
  S   S9        1.0  0.8175416986938022  0.42286395870039273  0.8875619110015056  1.0000
  S   S10       1.0  0.23248618377460395  0.8737122780070882  0.8341176793851758  1.0000
  S   S11       1.0  0.23326519449387925  0.09059067557598621  0.2292377821992434  1.0000
  S   S12       1.0  0.35126278509957176  0.1595306885937835  0.5745121201096759  1.0000
data_image163
_chemical_formula_structural       Sn4P4S12
_chemical_formula_sum              "Sn4 P4 S12"
_cell_length_a       7.57141576
_cell_length_b       6.596566975487068
_cell_length_c       11.859499654632444
_cell_angle_alpha    56.10713322711195
_cell_angle_beta     90.0
_cell_angle_gamma    90.0

_space_group_name_H-M_alt    "P 1"
_space_group_IT_number       1

loop_
  _space_group_symop_operation_xyz
  'x, y, z'

loop_
  _atom_site_type_symbol
  _atom_site_label
  _atom_site_symmetry_multiplicity
  _atom_site_fract_x
  _atom_site_fract_y
  _atom_site_fract_z
  _atom_site_occupancy
  Sn  Sn1       1.0  0.7300949084605073  0.6792171544052457  0.6095766842406318  1.0000
  Sn  Sn2       1.0  0.16824040767493642  0.5088985981373304  0.11219803735805588  1.0000
  Sn  Sn3       1.0  0.2769155670181063  0.5124086450865724  0.8193152525831163  1.0000
  Sn  Sn4       1.0  0.9182939090244908  0.9413600670689273  0.35012059757478525  1.0000
  P   P1        1.0  0.511994973184507  0.3867565863319504  0.4927421345744192  1.0000
  P   P2        1.0  0.5001855365877689  0.9177103590811566  0.15039772756362235  1.0000
  P   P3        1.0  0.5086664298225547  0.38563804088554565  0.9984763705161998  1.0000
  P   P4        1.0  0.8124268723267186  0.3140817288877667  0.44976975187304385  1.0000
  S   S1        1.0  0.9475038801373787  0.11733091019626984  0.9692454779313512  1.0000
  S   S2        1.0  0.8301026658212016  0.1719986099468748  0.652620777210364  1.0000
  S   S3        1.0  0.7606630246239525  0.7395444320856552  0.23937003129799034  1.0000
  S   S4        1.0  0.3964397288781002  0.3320995821432442  0.3488815872220873  1.0000
  S   S5        1.0  0.05304784888073063  0.4740283687991513  0.54556713617178  1.0000
  S   S6        1.0  0.6018993777579227  0.765762422488812  0.8677524929605347  1.0000
  S   S7        1.0  0.3499825153664685  0.7118493849132675  0.5683988946886006  1.0000
  S   S8        1.0  0.49409555419950246  0.580293454444185  0.15229606245196048  1.0000
  S   S9        1.0  0.7790716483570583  0.39464592854075453  0.8993166099014824  1.0000
  S   S10       1.0  0.2352038896908537  0.8833735509855299  0.8426102484690955  1.0000
  S   S11       1.0  0.2320369357087847  0.9916972103268304  0.24875669868221484  1.0000
  S   S12       1.0  0.3154756147817248  0.11451969985837551  0.5755353445281763  1.0000
data_image164
_chemical_formula_structural       Sn4P4S12
_chemical_formula_sum              "Sn4 P4 S12"
_cell_length_a       7.57141576
_cell_length_b       6.596566975487068
_cell_length_c       11.859499654632444
_cell_angle_alpha    56.10713322711195
_cell_angle_beta     90.0
_cell_angle_gamma    90.0

_space_group_name_H-M_alt    "P 1"
_space_group_IT_number       1

loop_
  _space_group_symop_operation_xyz
  'x, y, z'

loop_
  _atom_site_type_symbol
  _atom_site_label
  _atom_site_symmetry_multiplicity
  _atom_site_fract_x
  _atom_site_fract_y
  _atom_site_fract_z
  _atom_site_occupancy
  Sn  Sn1       1.0  0.7678449771060412  0.7450241840081098  0.6388560806669186  1.0000
  Sn  Sn2       1.0  0.10075209760692694  0.5702758830605157  0.08151995272410044  1.0000
  Sn  Sn3       1.0  0.2562444719551997  0.4893095126522572  0.8063605943538676  1.0000
  Sn  Sn4       1.0  0.9974772064074047  0.9501973683792598  0.315576047336318  1.0000
  P   P1        1.0  0.47577270407574784  0.42100180376857266  0.4582968383334215  1.0000
  P   P2        1.0  0.4475191806044816  0.8792250816346932  0.11252550402582887  1.0000
  P   P3        1.0  0.48982452486055794  0.28726122371702  0.9793462912192715  1.0000
  P   P4        1.0  0.7805882231804003  0.2135588216785458  0.5630387915874315  1.0000
  S   S1        1.0  0.03196119840829725  0.21825606222520944  0.8963200609357839  1.0000
  S   S2        1.0  0.7638045961506899  0.06117873716138668  0.8174364507497784  1.0000
  S   S3        1.0  0.6443611345463841  0.7391422330758723  0.3088188537191881  1.0000
  S   S4        1.0  0.46293967347058185  0.254681162823875  0.3598653548909872  1.0000
  S   S5        1.0  0.9499333657425157  0.4735383880611565  0.5455895920041144  1.0000
  S   S6        1.0  0.6525612123485334  0.6190572432013257  0.9192264949417088  1.0000
  S   S7        1.0  0.4236650214200908  0.8105036697047837  0.6191873289013836  1.0000
  S   S8        1.0  0.5680973021046942  0.5110373190570614  0.17540267893017392  1.0000
  S   S9        1.0  0.7314159356941482  0.2876532384764141  0.8682192581753665  1.0000
  S   S10       1.0  0.20075435181547174  0.8277623306974211  0.8167027892782165  1.0000
  S   S11       1.0  0.2908635617860019  0.10526401904465144  0.16179921908231354  1.0000
  S   S12       1.0  0.3044757275863179  0.1513763861168671  0.5824168204688003  1.0000
data_image165
_chemical_formula_structural       Sn4P4S12
_chemical_formula_sum              "Sn4 P4 S12"
_cell_length_a       7.57141576
_cell_length_b       6.596566975487068
_cell_length_c       11.859499654632444
_cell_angle_alpha    56.10713322711195
_cell_angle_beta     90.0
_cell_angle_gamma    90.0

_space_group_name_H-M_alt    "P 1"
_space_group_IT_number       1

loop_
  _space_group_symop_operation_xyz
  'x, y, z'

loop_
  _atom_site_type_symbol
  _atom_site_label
  _atom_site_symmetry_multiplicity
  _atom_site_fract_x
  _atom_site_fract_y
  _atom_site_fract_z
  _atom_site_occupancy
  Sn  Sn1       1.0  0.8224167107065302  0.7099074477644933  0.6888244507895601  1.0000
  Sn  Sn2       1.0  0.09916260434716762  0.612907042691603  0.09062742928494769  1.0000
  Sn  Sn3       1.0  0.22743979292906796  0.5705578844733603  0.732288586084131  1.0000
  Sn  Sn4       1.0  0.005885120590915044  0.8966799564416178  0.3201622401434746  1.0000
  P   P1        1.0  0.44401322795312836  0.4135602065938482  0.4696948354313971  1.0000
  P   P2        1.0  0.4636503896166992  0.7213598712183484  0.22717294126784984  1.0000
  P   P3        1.0  0.5130479667692387  0.280460368704117  0.9498545398817785  1.0000
  P   P4        1.0  0.6583432769320524  0.3792388439014087  0.599523388025198  1.0000
  S   S1        1.0  0.1494913449744235  0.08964326253970745  0.8878644854149367  1.0000
  S   S2        1.0  0.6714384020218762  0.9694284890148097  0.7896249884417317  1.0000
  S   S3        1.0  0.5982692392230348  0.9516502641974578  0.26619196296153613  1.0000
  S   S4        1.0  0.4397566539368914  0.3155573887933303  0.3399654904264982  1.0000
  S   S5        1.0  0.9032818089202631  0.4523909637913396  0.5623690008144043  1.0000
  S   S6        1.0  0.717895285985994  0.4246712482601871  0.9861656713524037  1.0000
  S   S7        1.0  0.456733471269822  0.8213906091744613  0.5808812514644635  1.0000
  S   S8        1.0  0.5933142030268788  0.5541020408314354  0.14144272060414975  1.0000
  S   S9        1.0  0.7367180717526345  0.12113778884817285  0.9282976084821073  1.0000
  S   S10       1.0  0.16893382261862488  0.8361338086955543  0.8184369988892853  1.0000
  S   S11       1.0  0.30099018228792523  0.2952210231549999  0.09445492580422621  1.0000
  S   S12       1.0  0.2743430483089935  0.10562807681490738  0.584243947790978  1.0000
data_image166
_chemical_formula_structural       Sn4P4S12
_chemical_formula_sum              "Sn4 P4 S12"
_cell_length_a       7.57141576
_cell_length_b       6.596566975487068
_cell_length_c       11.859499654632444
_cell_angle_alpha    56.10713322711195
_cell_angle_beta     90.0
_cell_angle_gamma    90.0

_space_group_name_H-M_alt    "P 1"
_space_group_IT_number       1

loop_
  _space_group_symop_operation_xyz
  'x, y, z'

loop_
  _atom_site_type_symbol
  _atom_site_label
  _atom_site_symmetry_multiplicity
  _atom_site_fract_x
  _atom_site_fract_y
  _atom_site_fract_z
  _atom_site_occupancy
  Sn  Sn1       1.0  0.8091550635256938  0.7285682819937072  0.7042557241658394  1.0000
  Sn  Sn2       1.0  0.08511041296585953  0.6462534502466042  0.09159219182459231  1.0000
  Sn  Sn3       1.0  0.1669064237245555  0.5325270827133128  0.7087435111566909  1.0000
  Sn  Sn4       1.0  0.9505451368391732  0.8314849581690065  0.3141683168284225  1.0000
  P   P1        1.0  0.47248950594702593  0.5383308938555235  0.4778606076227773  1.0000
  P   P2        1.0  0.49519595310405745  0.6953644024228942  0.25445366865845437  1.0000
  P   P3        1.0  0.5672259880594939  0.3709885970634917  0.9006515891351814  1.0000
  P   P4        1.0  0.7244186207205425  0.44503717118194414  0.5855805807162625  1.0000
  S   S1        1.0  0.30894666317612485  0.10241505750651525  0.9556157253200981  1.0000
  S   S2        1.0  0.6468030827216148  0.10136980356302804  0.7297585234665446  1.0000
  S   S3        1.0  0.6362597615432262  0.9647862038040502  0.2962485616642548  1.0000
  S   S4        1.0  0.4683001192069135  0.2798905454924264  0.35914704323321583  1.0000
  S   S5        1.0  0.9730806670113366  0.40515635283150775  0.5271859142038009  1.0000
  S   S6        1.0  0.8485179324064092  0.39170477105949764  0.9460795842489071  1.0000
  S   S7        1.0  0.4600144169212544  0.8297055544612865  0.6202292336207456  1.0000
  S   S8        1.0  0.637081536686281  0.5948580087338986  0.1605891507409376  1.0000
  S   S9        1.0  0.6181289854186667  0.9450592341753449  0.005760755206495105  1.0000
  S   S10       1.0  0.14913750433573814  0.8543753846413231  0.8039636819319774  1.0000
  S   S11       1.0  0.35556108877670933  0.3308791401934512  0.06443473299191704  1.0000
  S   S12       1.0  0.2654385076644812  0.07948018261696976  0.5858154916800689  1.0000
data_image167
_chemical_formula_structural       Sn4P4S12
_chemical_formula_sum              "Sn4 P4 S12"
_cell_length_a       7.57141576
_cell_length_b       6.596566975487068
_cell_length_c       11.859499654632444
_cell_angle_alpha    56.10713322711195
_cell_angle_beta     90.0
_cell_angle_gamma    90.0

_space_group_name_H-M_alt    "P 1"
_space_group_IT_number       1

loop_
  _space_group_symop_operation_xyz
  'x, y, z'

loop_
  _atom_site_type_symbol
  _atom_site_label
  _atom_site_symmetry_multiplicity
  _atom_site_fract_x
  _atom_site_fract_y
  _atom_site_fract_z
  _atom_site_occupancy
  Sn  Sn1       1.0  0.8114377160988743  0.8040801035133345  0.6573429953101665  1.0000
  Sn  Sn2       1.0  0.09850112221380702  0.6335408103067228  0.07983559746286291  1.0000
  Sn  Sn3       1.0  0.14359895859917793  0.49058923910289565  0.7255178561621985  1.0000
  Sn  Sn4       1.0  0.010697941059397574  0.8623120033290664  0.2438589516075152  1.0000
  P   P1        1.0  0.4737227857079305  0.5208765967198672  0.5370005879638801  1.0000
  P   P2        1.0  0.3370326860929202  0.7025954152792631  0.3605462886741397  1.0000
  P   P3        1.0  0.5110575954507827  0.4988017769538413  0.9791777202327896  1.0000
  P   P4        1.0  0.8565366014866994  0.4189632416554415  0.5845933889221928  1.0000
  S   S1        1.0  0.342072833349631  0.02395421332915104  0.9930473849115106  1.0000
  S   S2        1.0  0.6884121223946797  0.14898987205421602  0.6985077296663048  1.0000
  S   S3        1.0  0.6161107584150188  0.851510791362657  0.3435374020707954  1.0000
  S   S4        1.0  0.43938680603629904  0.4615501876168907  0.3302495047904604  1.0000
  S   S5        1.0  0.0030720574667768676  0.3923647263912335  0.45020770759787754  1.0000
  S   S6        1.0  0.7305343703024634  0.3512225268940671  0.955143185257129  1.0000
  S   S7        1.0  0.3847479066625303  0.763719041480856  0.60792810247555  1.0000
  S   S8        1.0  0.7333041590356983  0.5785718924788064  0.14043283342917912  1.0000
  S   S9        1.0  0.5942941069667061  0.8770667457327581  0.04182406614063838  1.0000
  S   S10       1.0  0.1039737878825171  0.8077676811677648  0.8194333228458414  1.0000
  S   S11       1.0  0.3369614939790412  0.27039873275446125  0.14150582194108385  1.0000
  S   S12       1.0  0.27763599831518326  0.06978649074257703  0.7158197503059627  1.0000
data_image168
_chemical_formula_structural       Sn4P4S12
_chemical_formula_sum              "Sn4 P4 S12"
_cell_length_a       7.57141576
_cell_length_b       6.596566975487068
_cell_length_c       11.859499654632444
_cell_angle_alpha    56.10713322711195
_cell_angle_beta     90.0
_cell_angle_gamma    90.0

_space_group_name_H-M_alt    "P 1"
_space_group_IT_number       1

loop_
  _space_group_symop_operation_xyz
  'x, y, z'

loop_
  _atom_site_type_symbol
  _atom_site_label
  _atom_site_symmetry_multiplicity
  _atom_site_fract_x
  _atom_site_fract_y
  _atom_site_fract_z
  _atom_site_occupancy
  Sn  Sn1       1.0  0.7659515431158248  0.8191865356018235  0.6145364358840077  1.0000
  Sn  Sn2       1.0  0.08324328992053354  0.5621446825749432  0.1261314960727634  1.0000
  Sn  Sn3       1.0  0.17435833934633485  0.46094765715911634  0.7847247569955639  1.0000
  Sn  Sn4       1.0  0.026160431946347665  0.9561264554566417  0.13963219497616863  1.0000
  P   P1        1.0  0.5156230381860546  0.5319233698637766  0.5905785046028427  1.0000
  P   P2        1.0  0.3414163065746154  0.6846162122777437  0.38795703021315536  1.0000
  P   P3        1.0  0.5455378996111413  0.5286906904811441  0.04029359204747945  1.0000
  P   P4        1.0  0.8951113867299868  0.458223343854441  0.5720332138255776  1.0000
  S   S1        1.0  0.4185132560152427  0.9094958344953417  0.9822324314773382  1.0000
  S   S2        1.0  0.7248695192867292  0.19345345009221948  0.6988922328800172  1.0000
  S   S3        1.0  0.6485899373250401  0.8449398008289131  0.3885383239713544  1.0000
  S   S4        1.0  0.38292638155839437  0.4937095292967113  0.3011045812579717  1.0000
  S   S5        1.0  0.9410248477259757  0.42144170800629505  0.39600094927760315  1.0000
  S   S6        1.0  0.5894564664608355  0.508558487405103  0.8840428456496026  1.0000
  S   S7        1.0  0.4098829004634483  0.7700663348705412  0.6420414939939662  1.0000
  S   S8        1.0  0.7335944236271723  0.4530759995908997  0.16199493878700433  1.0000
  S   S9        1.0  0.7038792475381748  0.8742654124728764  0.009038625168240166  1.0000
  S   S10       1.0  0.04616837920993899  0.7875399248962827  0.8267290025854844  1.0000
  S   S11       1.0  0.3219233826755881  0.2579467272738367  0.16803109456513798  1.0000
  S   S12       1.0  0.2661126355173913  0.9881902068855695  0.8073491283565568  1.0000
data_image169
_chemical_formula_structural       Sn4P4S12
_chemical_formula_sum              "Sn4 P4 S12"
_cell_length_a       7.57141576
_cell_length_b       6.596566975487068
_cell_length_c       11.859499654632444
_cell_angle_alpha    56.10713322711195
_cell_angle_beta     90.0
_cell_angle_gamma    90.0

_space_group_name_H-M_alt    "P 1"
_space_group_IT_number       1

loop_
  _space_group_symop_operation_xyz
  'x, y, z'

loop_
  _atom_site_type_symbol
  _atom_site_label
  _atom_site_symmetry_multiplicity
  _atom_site_fract_x
  _atom_site_fract_y
  _atom_site_fract_z
  _atom_site_occupancy
  Sn  Sn1       1.0  0.7464301693797373  0.956543604606469  0.5565803421761546  1.0000
  Sn  Sn2       1.0  0.10373882905312803  0.5107696344166577  0.16211400673663098  1.0000
  Sn  Sn3       1.0  0.18267699351031566  0.46097138132364746  0.8314129778127946  1.0000
  Sn  Sn4       1.0  0.027800520306089666  0.008411016456805526  0.1002471778698727  1.0000
  P   P1        1.0  0.4369841793981355  0.5788313254444757  0.5799122098347789  1.0000
  P   P2        1.0  0.3951187936481997  0.7435924806718681  0.3266970291712047  1.0000
  P   P3        1.0  0.5812902772416729  0.4954186282417446  0.06255352564977562  1.0000
  P   P4        1.0  0.9386688904987981  0.3759355149922015  0.5954237199041498  1.0000
  S   S1        1.0  0.40286918644727354  0.7680947910792502  0.05286693057084313  1.0000
  S   S2        1.0  0.6901533783187881  0.27593943772044693  0.617390214796198  1.0000
  S   S3        1.0  0.6856191480639487  0.7737800417788305  0.3485260944797507  1.0000
  S   S4        1.0  0.36509535234796114  0.4156052900442022  0.392202560722025  1.0000
  S   S5        1.0  0.8748043561504723  0.5733612191787333  0.3608827680274515  1.0000
  S   S6        1.0  0.6682264868361072  0.4966531785602365  0.8776464164552531  1.0000
  S   S7        1.0  0.4268418386428564  0.8565695314305165  0.6037218354825381  1.0000
  S   S8        1.0  0.7107980967011427  0.2479007138891668  0.26637731682522237  1.0000
  S   S9        1.0  0.7957096860921984  0.7167738870837534  0.06150814381833003  1.0000
  S   S10       1.0  0.9393977613610578  0.7603004083885915  0.8521920091944915  1.0000
  S   S11       1.0  0.3704090910091491  0.17644334747000667  0.13497752508572858  1.0000
  S   S12       1.0  0.15987816487913142  0.9388714109572831  0.7723839558310452  1.0000
data_image170
_chemical_formula_structural       Sn4P4S12
_chemical_formula_sum              "Sn4 P4 S12"
_cell_length_a       7.57141576
_cell_length_b       6.596566975487068
_cell_length_c       11.859499654632444
_cell_angle_alpha    56.10713322711195
_cell_angle_beta     90.0
_cell_angle_gamma    90.0

_space_group_name_H-M_alt    "P 1"
_space_group_IT_number       1

loop_
  _space_group_symop_operation_xyz
  'x, y, z'

loop_
  _atom_site_type_symbol
  _atom_site_label
  _atom_site_symmetry_multiplicity
  _atom_site_fract_x
  _atom_site_fract_y
  _atom_site_fract_z
  _atom_site_occupancy
  Sn  Sn1       1.0  0.7978237795261867  0.03260881634441759  0.541818422277758  1.0000
  Sn  Sn2       1.0  0.1505753920952777  0.4910081439966283  0.16831366277450083  1.0000
  Sn  Sn3       1.0  0.18624288606095454  0.461929789890283  0.8398044546969012  1.0000
  Sn  Sn4       1.0  0.01570094421008878  0.9742333703842008  0.1270854047234739  1.0000
  P   P1        1.0  0.34604479020052864  0.5495075278259295  0.5481772524366312  1.0000
  P   P2        1.0  0.4128383614478017  0.6666238667350477  0.3282363148347186  1.0000
  P   P3        1.0  0.6180914328379679  0.5399266098465393  0.019131461957102865  1.0000
  P   P4        1.0  0.8881283186381916  0.39386586884581376  0.5986115831845784  1.0000
  S   S1        1.0  0.3791557540453776  0.8060633806512576  0.012241578518988439  1.0000
  S   S2        1.0  0.5630154427637524  0.39863002654422064  0.6459139145756003  1.0000
  S   S3        1.0  0.6836607499971225  0.9190225390783795  0.24876021976843554  1.0000
  S   S4        1.0  0.45497229967963565  0.3618871950358553  0.39670969249025745  1.0000
  S   S5        1.0  0.9947189894147891  0.5417568324265436  0.41405472539343263  1.0000
  S   S6        1.0  0.5842542491473837  0.36511468637508115  0.9332080537214806  1.0000
  S   S7        1.0  0.38705803220642515  0.8090259856762096  0.6211088580982703  1.0000
  S   S8        1.0  0.6215706257168665  0.24107078234547585  0.2374303957373458  1.0000
  S   S9        1.0  0.7752091377108679  0.8469942360907514  0.9728198610371075  1.0000
  S   S10       1.0  0.9278720516542012  0.737256939300158  0.8732788847644019  1.0000
  S   S11       1.0  0.31231389848640095  0.011865401952973365  0.15163503058074845  1.0000
  S   S12       1.0  0.1563395117002886  0.9196802087160867  0.7998476109082304  1.0000
data_image171
_chemical_formula_structural       Sn4P4S12
_chemical_formula_sum              "Sn4 P4 S12"
_cell_length_a       7.57141576
_cell_length_b       6.596566975487068
_cell_length_c       11.859499654632444
_cell_angle_alpha    56.10713322711195
_cell_angle_beta     90.0
_cell_angle_gamma    90.0

_space_group_name_H-M_alt    "P 1"
_space_group_IT_number       1

loop_
  _space_group_symop_operation_xyz
  'x, y, z'

loop_
  _atom_site_type_symbol
  _atom_site_label
  _atom_site_symmetry_multiplicity
  _atom_site_fract_x
  _atom_site_fract_y
  _atom_site_fract_z
  _atom_site_occupancy
  Sn  Sn1       1.0  0.8386520059933747  0.043405331565499417  0.5707961507631417  1.0000
  Sn  Sn2       1.0  0.19408103402049015  0.48934185655014706  0.1579153486809256  1.0000
  Sn  Sn3       1.0  0.25197893572923863  0.42893940555311827  0.8164783917837903  1.0000
  Sn  Sn4       1.0  0.9681685599062841  0.9251933191981541  0.14251719505070004  1.0000
  P   P1        1.0  0.38097959090469113  0.4897352345008015  0.5628076913047922  1.0000
  P   P2        1.0  0.4506842294171858  0.729296670023688  0.33305424085659996  1.0000
  P   P3        1.0  0.5022396578513498  0.5301547612756022  0.03995193270675399  1.0000
  P   P4        1.0  0.8049936797652646  0.5206568535373155  0.5808812060584145  1.0000
  S   S1        1.0  0.38385613004133523  0.9273661217329473  0.9326429436947957  1.0000
  S   S2        1.0  0.562292425077002  0.30984470834356753  0.7132284292579644  1.0000
  S   S3        1.0  0.7327188977360339  0.9085033657891517  0.3015396445946417  1.0000
  S   S4        1.0  0.43222608747857794  0.3465433762825453  0.4428401791468173  1.0000
  S   S5        1.0  0.9230395408394911  0.45918529226029925  0.4335822853813892  1.0000
  S   S6        1.0  0.5274114049743082  0.37726159972032813  0.9360309067853669  1.0000
  S   S7        1.0  0.37970087573978173  0.8866393383331541  0.5405601978863013  1.0000
  S   S8        1.0  0.6738306809644514  0.2990378481880439  0.21346797768651138  1.0000
  S   S9        1.0  0.6625698322926998  0.8108616270884694  0.9653225800243381  1.0000
  S   S10       1.0  0.9199160178241201  0.7664468490126818  0.8125058568413083  1.0000
  S   S11       1.0  0.23332379874626902  0.12256235945852834  0.1724897923661306  1.0000
  S   S12       1.0  0.15248382494647283  0.8965101580427175  0.781485615462927  1.0000
data_image172
_chemical_formula_structural       Sn4P4S12
_chemical_formula_sum              "Sn4 P4 S12"
_cell_length_a       7.57141576
_cell_length_b       6.596566975487068
_cell_length_c       11.859499654632444
_cell_angle_alpha    56.10713322711195
_cell_angle_beta     90.0
_cell_angle_gamma    90.0

_space_group_name_H-M_alt    "P 1"
_space_group_IT_number       1

loop_
  _space_group_symop_operation_xyz
  'x, y, z'

loop_
  _atom_site_type_symbol
  _atom_site_label
  _atom_site_symmetry_multiplicity
  _atom_site_fract_x
  _atom_site_fract_y
  _atom_site_fract_z
  _atom_site_occupancy
  Sn  Sn1       1.0  0.8320672603577539  0.9612146524038303  0.6310085743193395  1.0000
  Sn  Sn2       1.0  0.1695914911556613  0.4967284140049011  0.20469506688919345  1.0000
  Sn  Sn3       1.0  0.26967022001665825  0.3355009018400933  0.8596696928270008  1.0000
  Sn  Sn4       1.0  0.9151749543868578  0.01062101441458761  0.053013070545137056  1.0000
  P   P1        1.0  0.4092911954930656  0.462361941776111  0.4947691264839876  1.0000
  P   P2        1.0  0.5266377754644446  0.7964225495520094  0.30348291168374036  1.0000
  P   P3        1.0  0.48873417100508165  0.4712476699972593  0.044512187922263795  1.0000
  P   P4        1.0  0.7917303765438573  0.5665877511304571  0.6031676077673251  1.0000
  S   S1        1.0  0.3383662772922529  0.8940735109364768  0.9349373917159882  1.0000
  S   S2        1.0  0.6257392100262679  0.262194839667369  0.675523305215163  1.0000
  S   S3        1.0  0.8004211644321719  0.9923508585203744  0.33949877155452163  1.0000
  S   S4        1.0  0.43592656688776854  0.3510031067080983  0.3786862871541285  1.0000
  S   S5        1.0  0.9163806023937199  0.4793520590074668  0.4817050727239615  1.0000
  S   S6        1.0  0.5873539543839841  0.5145033465918529  0.8766864201341956  1.0000
  S   S7        1.0  0.35943101672084016  0.8980066242521757  0.4220674464875862  1.0000
  S   S8        1.0  0.7445219114830068  0.4262576023332749  0.17859888270473556  1.0000
  S   S9        1.0  0.5997437928839094  0.9441779962986048  0.9655184597535618  1.0000
  S   S10       1.0  0.9970197856851761  0.7758455082662086  0.8958587273733406  1.0000
  S   S11       1.0  0.2312113207987392  0.008282523855436708  0.22710442768438788  1.0000
  S   S12       1.0  0.11930633147780267  0.8466652458968842  0.7135600227191601  1.0000
data_image173
_chemical_formula_structural       Sn4P4S12
_chemical_formula_sum              "Sn4 P4 S12"
_cell_length_a       7.57141576
_cell_length_b       6.596566975487068
_cell_length_c       11.859499654632444
_cell_angle_alpha    56.10713322711195
_cell_angle_beta     90.0
_cell_angle_gamma    90.0

_space_group_name_H-M_alt    "P 1"
_space_group_IT_number       1

loop_
  _space_group_symop_operation_xyz
  'x, y, z'

loop_
  _atom_site_type_symbol
  _atom_site_label
  _atom_site_symmetry_multiplicity
  _atom_site_fract_x
  _atom_site_fract_y
  _atom_site_fract_z
  _atom_site_occupancy
  Sn  Sn1       1.0  0.7951568424927261  0.9743376229279188  0.612374926311661  1.0000
  Sn  Sn2       1.0  0.08537833556195196  0.4995455492922689  0.2434690785354761  1.0000
  Sn  Sn3       1.0  0.2901885791012442  0.2763622112022247  0.8605297694491423  1.0000
  Sn  Sn4       1.0  0.8982279676808749  0.18411387291502865  0.9978668687878315  1.0000
  P   P1        1.0  0.5050825432601906  0.47999513279012007  0.42816700419750675  1.0000
  P   P2        1.0  0.5659880885643992  0.8786266224632218  0.2983061790023001  1.0000
  P   P3        1.0  0.5152353190605151  0.5960638244719453  0.03893133351929094  1.0000
  P   P4        1.0  0.865729991894685  0.47238356164804857  0.626348944491575  1.0000
  S   S1        1.0  0.23292063383678263  0.7178546896242863  0.0036956569551893637  1.0000
  S   S2        1.0  0.6238688867724693  0.24623579217896074  0.7051965388990946  1.0000
  S   S3        1.0  0.8095531177489222  0.02229113638499003  0.3514616498394461  1.0000
  S   S4        1.0  0.4122177240230136  0.35413921816124083  0.30603035735692985  1.0000
  S   S5        1.0  0.04769601834477164  0.33484565125502547  0.5661620035070292  1.0000
  S   S6        1.0  0.5865294531956571  0.5031109102786915  0.873057151179238  1.0000
  S   S7        1.0  0.3430456329552357  0.836537446578764  0.42669952079692647  1.0000
  S   S8        1.0  0.8263741293510016  0.3672426894884343  0.13596173596868177  1.0000
  S   S9        1.0  0.622781056403654  0.8262255555130684  0.09905474435086736  1.0000
  S   S10       1.0  0.049301546768988236  0.701699417340464  0.841781405850871  1.0000
  S   S11       1.0  0.16318429201573662  0.12190537604007323  0.23790743679040327  1.0000
  S   S12       1.0  0.24650498637868168  0.7549677127238055  0.7208496544073995  1.0000
data_image174
_chemical_formula_structural       Sn4P4S12
_chemical_formula_sum              "Sn4 P4 S12"
_cell_length_a       7.57141576
_cell_length_b       6.596566975487068
_cell_length_c       11.859499654632444
_cell_angle_alpha    56.10713322711195
_cell_angle_beta     90.0
_cell_angle_gamma    90.0

_space_group_name_H-M_alt    "P 1"
_space_group_IT_number       1

loop_
  _space_group_symop_operation_xyz
  'x, y, z'

loop_
  _atom_site_type_symbol
  _atom_site_label
  _atom_site_symmetry_multiplicity
  _atom_site_fract_x
  _atom_site_fract_y
  _atom_site_fract_z
  _atom_site_occupancy
  Sn  Sn1       1.0  0.7588731464167867  0.9900332271152872  0.5979273933750741  1.0000
  Sn  Sn2       1.0  0.041557842615716156  0.40713012770982293  0.3299130694147801  1.0000
  Sn  Sn3       1.0  0.32332680756090676  0.32798316199445776  0.8056835398513615  1.0000
  Sn  Sn4       1.0  0.8890030518070697  0.26475254230629186  0.96459180351847  1.0000
  P   P1        1.0  0.5679746872351357  0.5808722174069236  0.40729244336390297  1.0000
  P   P2        1.0  0.6237285825871628  0.03357154672054108  0.25936652113064057  1.0000
  P   P3        1.0  0.4681874429425324  0.5763498642120511  0.13352370834846328  1.0000
  P   P4        1.0  0.9016418559278806  0.4473623779598624  0.7158670971322243  1.0000
  S   S1        1.0  0.23698290682855516  0.7239491407186192  0.01693624967601659  1.0000
  S   S2        1.0  0.6378633518453547  0.3492080986070919  0.6576646414515319  1.0000
  S   S3        1.0  0.9509555276380415  0.9297846128638172  0.39651575337521994  1.0000
  S   S4        1.0  0.43965126443785746  0.2581558687977634  0.3714924998695106  1.0000
  S   S5        1.0  0.018922407750852722  0.26559375679773745  0.5807720492924163  1.0000
  S   S6        1.0  0.6199878927298048  0.5430650303527838  0.8533909764022884  1.0000
  S   S7        1.0  0.26601201174648165  0.6188055241211283  0.38997829638232934  1.0000
  S   S8        1.0  0.8271757375131505  0.26316780953871377  0.19152302346416095  1.0000
  S   S9        1.0  0.5600381248117914  0.884019671101969  0.08469487323615033  1.0000
  S   S10       1.0  0.0298263861826934  0.6974897471910129  0.7623140600938915  1.0000
  S   S11       1.0  0.23957528865368735  0.971141214865032  0.23342092022369687  1.0000
  S   S12       1.0  0.2448950049165779  0.8749728516108897  0.6670995443361525  1.0000
data_image175
_chemical_formula_structural       Sn4P4S12
_chemical_formula_sum              "Sn4 P4 S12"
_cell_length_a       7.57141576
_cell_length_b       6.596566975487068
_cell_length_c       11.859499654632444
_cell_angle_alpha    56.10713322711195
_cell_angle_beta     90.0
_cell_angle_gamma    90.0

_space_group_name_H-M_alt    "P 1"
_space_group_IT_number       1

loop_
  _space_group_symop_operation_xyz
  'x, y, z'

loop_
  _atom_site_type_symbol
  _atom_site_label
  _atom_site_symmetry_multiplicity
  _atom_site_fract_x
  _atom_site_fract_y
  _atom_site_fract_z
  _atom_site_occupancy
  Sn  Sn1       1.0  0.7202469748855422  0.9556837663394557  0.5980833561077569  1.0000
  Sn  Sn2       1.0  0.04842061095267303  0.3954632760400525  0.34616002100709853  1.0000
  Sn  Sn3       1.0  0.3724794817960955  0.32846776595861726  0.7567524189457113  1.0000
  Sn  Sn4       1.0  0.9177603822844158  0.2242138723696224  0.9965134748492217  1.0000
  P   P1        1.0  0.5668510495876521  0.6762860627164797  0.3917560024394874  1.0000
  P   P2        1.0  0.47839579855344244  0.18460771101524642  0.2510854860388494  1.0000
  P   P3        1.0  0.43791989259637976  0.559139463088348  0.13286206282072613  1.0000
  P   P4        1.0  0.8832135010701333  0.6050795059875491  0.628521348493461  1.0000
  S   S1        1.0  0.20137693474590757  0.48787818685093093  0.07866484652599559  1.0000
  S   S2        1.0  0.6380259811974912  0.3036925993819095  0.65750443492476  1.0000
  S   S3        1.0  0.9800313817260802  0.977538964110563  0.3929259381094335  1.0000
  S   S4        1.0  0.4346955848383604  0.3615117136083825  0.356266622835105  1.0000
  S   S5        1.0  0.9778975803343576  0.14631422909472708  0.7000492484181167  1.0000
  S   S6        1.0  0.5650148477391621  0.571826725792407  0.8070907058648127  1.0000
  S   S7        1.0  0.3243383209638918  0.6145110230584674  0.44608519044875566  1.0000
  S   S8        1.0  0.7196086419072074  0.3003378076869023  0.1726161791512104  1.0000
  S   S9        1.0  0.6147303960528966  0.8272186953916087  0.10891223012896578  1.0000
  S   S10       1.0  0.11968777863069369  0.6533287918575208  0.7853692825998394  1.0000
  S   S11       1.0  0.3429565645182055  0.9677031229782279  0.21086791917904746  1.0000
  S   S12       1.0  0.1696036424037881  0.11205988446236648  0.6003736828535651  1.0000
data_image176
_chemical_formula_structural       Sn4P4S12
_chemical_formula_sum              "Sn4 P4 S12"
_cell_length_a       7.57141576
_cell_length_b       6.596566975487068
_cell_length_c       11.859499654632444
_cell_angle_alpha    56.10713322711195
_cell_angle_beta     90.0
_cell_angle_gamma    90.0

_space_group_name_H-M_alt    "P 1"
_space_group_IT_number       1

loop_
  _space_group_symop_operation_xyz
  'x, y, z'

loop_
  _atom_site_type_symbol
  _atom_site_label
  _atom_site_symmetry_multiplicity
  _atom_site_fract_x
  _atom_site_fract_y
  _atom_site_fract_z
  _atom_site_occupancy
  Sn  Sn1       1.0  0.6550994640673193  0.9674080232663862  0.5817118016657336  1.0000
  Sn  Sn2       1.0  0.08430880693312237  0.4813138412499849  0.30346443410147245  1.0000
  Sn  Sn3       1.0  0.37714283383129293  0.3119840794750661  0.7396491649348114  1.0000
  Sn  Sn4       1.0  0.9188757434544556  0.16537533688165634  0.02799164143863098  1.0000
  P   P1        1.0  0.5125731786901078  0.770106297319934  0.3382507209635464  1.0000
  P   P2        1.0  0.49308483664540004  0.19461749717759202  0.21339307758864268  1.0000
  P   P3        1.0  0.4353273146666336  0.5681328611368469  0.14323008299728707  1.0000
  P   P4        1.0  0.9946695595395036  0.6973740718967488  0.6086240604542694  1.0000
  S   S1        1.0  0.19553854132670478  0.49515636290298776  0.09622029272546473  1.0000
  S   S2        1.0  0.8290869805312991  0.3477708471938458  0.6206801920763334  1.0000
  S   S3        1.0  0.8973750934108271  0.03878749869191411  0.39056944047462805  1.0000
  S   S4        1.0  0.43942452576015156  0.27503654008673084  0.3685900369806047  1.0000
  S   S5        1.0  0.889609873031299  0.9746161337770501  0.8108043786424926  1.0000
  S   S6        1.0  0.7002843453874901  0.41895808482766783  0.831965982535464  1.0000
  S   S7        1.0  0.2687074931425913  0.7406511230482807  0.536999090204643  1.0000
  S   S8        1.0  0.7308432412805512  0.4128588979969371  0.14439022867229756  1.0000
  S   S9        1.0  0.5985544135296503  0.853134440366133  0.013951082658442804  1.0000
  S   S10       1.0  0.108802095426628  0.5260380724452647  0.8213077346177207  1.0000
  S   S11       1.0  0.3308518572957946  0.9553301842621722  0.20565417808704145  1.0000
  S   S12       1.0  0.12008187504921608  0.0016765014292843272  0.7387236918588769  1.0000
data_image177
_chemical_formula_structural       Sn4P4S12
_chemical_formula_sum              "Sn4 P4 S12"
_cell_length_a       7.57141576
_cell_length_b       6.596566975487068
_cell_length_c       11.859499654632444
_cell_angle_alpha    56.10713322711195
_cell_angle_beta     90.0
_cell_angle_gamma    90.0

_space_group_name_H-M_alt    "P 1"
_space_group_IT_number       1

loop_
  _space_group_symop_operation_xyz
  'x, y, z'

loop_
  _atom_site_type_symbol
  _atom_site_label
  _atom_site_symmetry_multiplicity
  _atom_site_fract_x
  _atom_site_fract_y
  _atom_site_fract_z
  _atom_site_occupancy
  Sn  Sn1       1.0  0.6087772806035735  0.9394658389018635  0.6216638783963955  1.0000
  Sn  Sn2       1.0  0.11440123582935446  0.48919058810024985  0.305290599581761  1.0000
  Sn  Sn3       1.0  0.36579252316022254  0.30043344431910435  0.7303505058274282  1.0000
  Sn  Sn4       1.0  0.85881701797294  0.12786492488980578  0.05258095670198035  1.0000
  P   P1        1.0  0.5436655994600827  0.8114229398286167  0.3191757995100912  1.0000
  P   P2        1.0  0.5271385784121904  0.23389584789166706  0.1923369294973012  1.0000
  P   P3        1.0  0.4305269490216095  0.6052291666951771  0.10171371747365307  1.0000
  P   P4        1.0  0.043426898172839186  0.648900576222122  0.6220024299298604  1.0000
  S   S1        1.0  0.16386589041631483  0.7971609020659585  0.0299110355531349  1.0000
  S   S2        1.0  0.9137693277961496  0.3861193703242895  0.6408308362669661  1.0000
  S   S3        1.0  0.8422527804708281  0.904919600575794  0.47962573684869536  1.0000
  S   S4        1.0  0.49223034453283726  0.38009428521295385  0.32848111036014027  1.0000
  S   S5        1.0  0.9565979180327648  0.926296675762526  0.853256812434507  1.0000
  S   S6        1.0  0.654759155193652  0.4266630544349115  0.7491622129748846  1.0000
  S   S7        1.0  0.3038907658578094  0.6703729188551415  0.5059803448518768  1.0000
  S   S8        1.0  0.8066046287449256  0.374612692119792  0.14287940463103266  1.0000
  S   S9        1.0  0.535277339505424  0.9780739628198196  0.9467682953607846  1.0000
  S   S10       1.0  0.12561822120835442  0.44059646661877794  0.8179920778656995  1.0000
  S   S11       1.0  0.34590709824846566  0.008242768306439885  0.1781512544213686  1.0000
  S   S12       1.0  0.1861030147410161  0.9307638080693366  0.7618069828382505  1.0000
data_image178
_chemical_formula_structural       Sn4P4S12
_chemical_formula_sum              "Sn4 P4 S12"
_cell_length_a       7.57141576
_cell_length_b       6.596566975487068
_cell_length_c       11.859499654632444
_cell_angle_alpha    56.10713322711195
_cell_angle_beta     90.0
_cell_angle_gamma    90.0

_space_group_name_H-M_alt    "P 1"
_space_group_IT_number       1

loop_
  _space_group_symop_operation_xyz
  'x, y, z'

loop_
  _atom_site_type_symbol
  _atom_site_label
  _atom_site_symmetry_multiplicity
  _atom_site_fract_x
  _atom_site_fract_y
  _atom_site_fract_z
  _atom_site_occupancy
  Sn  Sn1       1.0  0.6363122418200376  0.9266479889083352  0.645945228234192  1.0000
  Sn  Sn2       1.0  0.10508153729075898  0.41633940397338187  0.376862386013372  1.0000
  Sn  Sn3       1.0  0.35420543804238946  0.2985878300787361  0.7679427573501552  1.0000
  Sn  Sn4       1.0  0.8367286775015289  0.1265933997309817  0.037793026101695916  1.0000
  P   P1        1.0  0.5136205225583226  0.8692991043361071  0.3052475022072948  1.0000
  P   P2        1.0  0.5539353536672167  0.3528968633232257  0.16592335566405159  1.0000
  P   P3        1.0  0.3936223700844174  0.6345815538279109  0.036593330378193865  1.0000
  P   P4        1.0  0.9931238889457709  0.558829553296479  0.6382330390041496  1.0000
  S   S1        1.0  0.13856061265346487  0.698969553913524  0.10545741652435625  1.0000
  S   S2        1.0  0.8626941699403152  0.47717657910667477  0.5322608470373856  1.0000
  S   S3        1.0  0.975138329929042  0.9379992607781626  0.5157639607736652  1.0000
  S   S4        1.0  0.500806783429666  0.5642875159589459  0.22603837888853218  1.0000
  S   S5        1.0  0.9760581169272469  0.8295333358831203  0.8099912032493752  1.0000
  S   S6        1.0  0.651606842513301  0.4990128471848271  0.779832508523626  1.0000
  S   S7        1.0  0.31704858393126195  0.6706628020833405  0.43215797567353087  1.0000
  S   S8        1.0  0.8536477595933047  0.3749187760319902  0.11794465872292736  1.0000
  S   S9        1.0  0.5931287501013249  0.8843035447865595  0.9133396685889641  1.0000
  S   S10       1.0  0.06120958991756731  0.4021047459646211  0.861735174912929  1.0000
  S   S11       1.0  0.37053661394990284  0.18138489069513586  0.0975343621659267  1.0000
  S   S12       1.0  0.17430190383576005  0.9194237256315636  0.689926961826445  1.0000
data_image179
_chemical_formula_structural       Sn4P4S12
_chemical_formula_sum              "Sn4 P4 S12"
_cell_length_a       7.57141576
_cell_length_b       6.596566975487068
_cell_length_c       11.859499654632444
_cell_angle_alpha    56.10713322711195
_cell_angle_beta     90.0
_cell_angle_gamma    90.0

_space_group_name_H-M_alt    "P 1"
_space_group_IT_number       1

loop_
  _space_group_symop_operation_xyz
  'x, y, z'

loop_
  _atom_site_type_symbol
  _atom_site_label
  _atom_site_symmetry_multiplicity
  _atom_site_fract_x
  _atom_site_fract_y
  _atom_site_fract_z
  _atom_site_occupancy
  Sn  Sn1       1.0  0.7486402167031911  0.9143913050892991  0.6772105307873975  1.0000
  Sn  Sn2       1.0  0.0957581866821764  0.405644063400751  0.3946084038765849  1.0000
  Sn  Sn3       1.0  0.34307335419276036  0.24688880343760777  0.766770592201167  1.0000
  Sn  Sn4       1.0  0.8412330384565054  0.10028298707268152  0.04062332471840922  1.0000
  P   P1        1.0  0.515913862506497  0.8365320673070178  0.3187038852410222  1.0000
  P   P2        1.0  0.5364116893995367  0.288700389931146  0.17953891302028688  1.0000
  P   P3        1.0  0.347464534301782  0.6661178631617507  0.023523554196989125  1.0000
  P   P4        1.0  0.8554155370064761  0.4202064328478022  0.6454641990913536  1.0000
  S   S1        1.0  0.11133747404146543  0.7179921012677978  0.08529439119956694  1.0000
  S   S2        1.0  0.6803285252034543  0.579757597179536  0.45025879726413004  1.0000
  S   S3        1.0  0.026070727539702077  0.9407591267725628  0.4840172744445588  1.0000
  S   S4        1.0  0.4525181369297131  0.5264519869816905  0.2401401864266975  1.0000
  S   S5        1.0  0.014368924008693251  0.028768768647111403  0.7774862816525514  1.0000
  S   S6        1.0  0.6982574084921427  0.4154395085983441  0.8001928457162691  1.0000
  S   S7        1.0  0.3366981611520965  0.6812195199354402  0.5324351981757728  1.0000
  S   S8        1.0  0.775359429741477  0.47715954894235446  0.13519367649123049  1.0000
  S   S9        1.0  0.5380708347106636  0.8999311889995459  0.8815216604926412  1.0000
  S   S10       1.0  0.12369432446057882  0.3564621528757387  0.8744274058706797  1.0000
  S   S11       1.0  0.4169817862224137  0.398167617432035  0.9795868784427706  1.0000
  S   S12       1.0  0.13588113543503755  0.9841555318750674  0.6322171643751828  1.0000
data_image180
_chemical_formula_structural       Sn4P4S12
_chemical_formula_sum              "Sn4 P4 S12"
_cell_length_a       7.57141576
_cell_length_b       6.596566975487068
_cell_length_c       11.859499654632444
_cell_angle_alpha    56.10713322711195
_cell_angle_beta     90.0
_cell_angle_gamma    90.0

_space_group_name_H-M_alt    "P 1"
_space_group_IT_number       1

loop_
  _space_group_symop_operation_xyz
  'x, y, z'

loop_
  _atom_site_type_symbol
  _atom_site_label
  _atom_site_symmetry_multiplicity
  _atom_site_fract_x
  _atom_site_fract_y
  _atom_site_fract_z
  _atom_site_occupancy
  Sn  Sn1       1.0  0.7885575256026506  0.9529617345138559  0.6619123168711104  1.0000
  Sn  Sn2       1.0  0.08577441495552018  0.45564727786106074  0.39967475181191053  1.0000
  Sn  Sn3       1.0  0.3172530749778964  0.29908921417935874  0.6854245062728517  1.0000
  Sn  Sn4       1.0  0.8542999838499352  0.055292405758354146  0.07180576462521322  1.0000
  P   P1        1.0  0.44411308722038906  0.8334289092582066  0.3263189546203176  1.0000
  P   P2        1.0  0.5375257127800093  0.3444254597644014  0.17748009225699402  1.0000
  P   P3        1.0  0.34861386306071307  0.6715771274147673  0.9567573982440359  1.0000
  P   P4        1.0  0.8558165842027756  0.5460381564065567  0.6062895094289026  1.0000
  S   S1        1.0  0.1617071435782358  0.627870619891603  0.08079706138485365  1.0000
  S   S2        1.0  0.6404441230861222  0.5491804174584007  0.4853193510392669  1.0000
  S   S3        1.0  0.03364727070650364  0.8275785013198298  0.5665681925768747  1.0000
  S   S4        1.0  0.3804271033291054  0.45960926390316037  0.3104467718388704  1.0000
  S   S5        1.0  0.9659073594613028  0.010219581624426289  0.813004719310345  1.0000
  S   S6        1.0  0.7176740723277852  0.5103059611491054  0.7643815696295069  1.0000
  S   S7        1.0  0.25851808240531765  0.7719458821291444  0.4396238402710318  1.0000
  S   S8        1.0  0.7819029204972476  0.3440405394967594  0.24109348931006136  1.0000
  S   S9        1.0  0.5851487396586034  0.894727359129694  0.9566151736590529  1.0000
  S   S10       1.0  0.10805567986244513  0.23559001213841135  0.8933270943758516  1.0000
  S   S11       1.0  0.40876604858989934  0.3256123923497758  0.0037617137908704246  1.0000
  S   S12       1.0  0.2663503982893558  0.9206423944160567  0.6351092232044793  1.0000
data_image181
_chemical_formula_structural       Sn4P4S12
_chemical_formula_sum              "Sn4 P4 S12"
_cell_length_a       7.57141576
_cell_length_b       6.596566975487068
_cell_length_c       11.859499654632444
_cell_angle_alpha    56.10713322711195
_cell_angle_beta     90.0
_cell_angle_gamma    90.0

_space_group_name_H-M_alt    "P 1"
_space_group_IT_number       1

loop_
  _space_group_symop_operation_xyz
  'x, y, z'

loop_
  _atom_site_type_symbol
  _atom_site_label
  _atom_site_symmetry_multiplicity
  _atom_site_fract_x
  _atom_site_fract_y
  _atom_site_fract_z
  _atom_site_occupancy
  Sn  Sn1       1.0  0.7663925130558578  0.0017920592905560362  0.64268018706378  1.0000
  Sn  Sn2       1.0  0.0550575416593142  0.5298591825120367  0.3607771737443142  1.0000
  Sn  Sn3       1.0  0.30836193428452985  0.3442476327803887  0.6817318657618993  1.0000
  Sn  Sn4       1.0  0.8170128763603559  0.029783200339652264  0.10208036189908547  1.0000
  P   P1        1.0  0.5198493332204785  0.766658046251871  0.2808999879358855  1.0000
  P   P2        1.0  0.5639682737101087  0.3959881892111907  0.1698563743860107  1.0000
  P   P3        1.0  0.4330737759774324  0.6757748170030228  0.9898841360038994  1.0000
  P   P4        1.0  0.7774358614271363  0.4448849093799691  0.6086715356365672  1.0000
  S   S1        1.0  0.1423550862633549  0.5696288295356482  0.020113342891337815  1.0000
  S   S2        1.0  0.5825042756032017  0.40351359836854894  0.5112962373409403  1.0000
  S   S3        1.0  0.09988296596722712  0.7714401994861915  0.70012174934238  1.0000
  S   S4        1.0  0.3764700598994518  0.3695204172224952  0.318009749321245  1.0000
  S   S5        1.0  0.01496819384257676  0.8937507652022648  0.9101857394860905  1.0000
  S   S6        1.0  0.7301020472589599  0.4978977382977453  0.7663514434775107  1.0000
  S   S7        1.0  0.2794042076880711  0.8172735543974878  0.36585806380602054  1.0000
  S   S8        1.0  0.8163356546746605  0.2723083738647878  0.2089718163496892  1.0000
  S   S9        1.0  0.5746657680819881  0.9659027676940183  0.9515635323179632  1.0000
  S   S10       1.0  0.1075476297384299  0.24378910129602716  0.8854431783649565  1.0000
  S   S11       1.0  0.5063263009973112  0.2583214756720005  0.050126258815001656  1.0000
  S   S12       1.0  0.3433813779197201  0.9957570533735944  0.6364620526347631  1.0000
data_image182
_chemical_formula_structural       Sn4P4S12
_chemical_formula_sum              "Sn4 P4 S12"
_cell_length_a       7.57141576
_cell_length_b       6.596566975487068
_cell_length_c       11.859499654632444
_cell_angle_alpha    56.10713322711195
_cell_angle_beta     90.0
_cell_angle_gamma    90.0

_space_group_name_H-M_alt    "P 1"
_space_group_IT_number       1

loop_
  _space_group_symop_operation_xyz
  'x, y, z'

loop_
  _atom_site_type_symbol
  _atom_site_label
  _atom_site_symmetry_multiplicity
  _atom_site_fract_x
  _atom_site_fract_y
  _atom_site_fract_z
  _atom_site_occupancy
  Sn  Sn1       1.0  0.7325530991227424  0.9452027345551735  0.6564462433949231  1.0000
  Sn  Sn2       1.0  0.04478904401403505  0.5510812273846641  0.3221844286054314  1.0000
  Sn  Sn3       1.0  0.31126016358654585  0.3890497509203138  0.7169963261282613  1.0000
  Sn  Sn4       1.0  0.8057375682291599  0.046319411659826275  0.11771120367264207  1.0000
  P   P1        1.0  0.4896814920341011  0.7030683646409641  0.26072848403785176  1.0000
  P   P2        1.0  0.5668200601040012  0.38502681767313307  0.13407188357298877  1.0000
  P   P3        1.0  0.43787903692507024  0.694411053225117  0.9440464198448655  1.0000
  P   P4        1.0  0.7645532682584664  0.5715411089387028  0.5451209388648627  1.0000
  S   S1        1.0  0.17928425018969962  0.6143484018548827  0.06081592277275605  1.0000
  S   S2        1.0  0.5534753802387584  0.4445468781443357  0.5006037632334637  1.0000
  S   S3        1.0  0.27987994049506204  0.7272586425003418  0.7724678147282342  1.0000
  S   S4        1.0  0.4901201521759893  0.16886691245631524  0.3313962155264479  1.0000
  S   S5        1.0  0.9860373275480305  0.8739195115570586  0.9301994984912363  1.0000
  S   S6        1.0  0.6639281246251159  0.4819983790561684  0.7562539144379119  1.0000
  S   S7        1.0  0.32146014197872474  0.836163426537847  0.3186351838969182  1.0000
  S   S8        1.0  0.8485482021420088  0.3902660413993194  0.19893660235537247  1.0000
  S   S9        1.0  0.5093950148877375  0.011752672412162223  0.8866275054649595  1.0000
  S   S10       1.0  0.0723621344531743  0.12837124764585994  0.00583604677954197  1.0000
  S   S11       1.0  0.5014777608148875  0.2533162835824787  0.023457559293452057  1.0000
  S   S12       1.0  0.3959254273651154  0.9641257858433943  0.5989866414036509  1.0000
data_image183
_chemical_formula_structural       Sn4P4S12
_chemical_formula_sum              "Sn4 P4 S12"
_cell_length_a       7.57141576
_cell_length_b       6.596566975487068
_cell_length_c       11.859499654632444
_cell_angle_alpha    56.10713322711195
_cell_angle_beta     90.0
_cell_angle_gamma    90.0

_space_group_name_H-M_alt    "P 1"
_space_group_IT_number       1

loop_
  _space_group_symop_operation_xyz
  'x, y, z'

loop_
  _atom_site_type_symbol
  _atom_site_label
  _atom_site_symmetry_multiplicity
  _atom_site_fract_x
  _atom_site_fract_y
  _atom_site_fract_z
  _atom_site_occupancy
  Sn  Sn1       1.0  0.7169062321331405  0.9776680887097691  0.673644151884029  1.0000
  Sn  Sn2       1.0  0.08931964102598045  0.6082717813841325  0.30006660967487403  1.0000
  Sn  Sn3       1.0  0.33705534472816384  0.3707694469107514  0.7148119951326862  1.0000
  Sn  Sn4       1.0  0.7735566810463719  0.9923277384655889  0.14262951425324522  1.0000
  P   P1        1.0  0.4609890414369202  0.5858625880741841  0.30519969438395766  1.0000
  P   P2        1.0  0.5151619114911286  0.3757431757412406  0.15242489732238937  1.0000
  P   P3        1.0  0.36085112438819006  0.6851723750780445  0.9685794578749156  1.0000
  P   P4        1.0  0.7279808581940663  0.7499770476852173  0.49453685629754496  1.0000
  S   S1        1.0  0.18909612660536235  0.5018532027557234  0.14008652163184543  1.0000
  S   S2        1.0  0.6291059736574065  0.45953876297193985  0.4788071400889418  1.0000
  S   S3        1.0  0.2108152180050311  0.6890039709535858  0.7848122673301979  1.0000
  S   S4        1.0  0.5135265237669212  0.07213001703692035  0.37268813356743363  1.0000
  S   S5        1.0  0.09896948510349271  0.8747695325630597  0.9360939094040412  1.0000
  S   S6        1.0  0.7074127186862715  0.4967265540483542  0.7027463382165646  1.0000
  S   S7        1.0  0.3353633715659695  0.9091095881937536  0.2727014763023361  1.0000
  S   S8        1.0  0.7834500285596648  0.42130788631636773  0.10842260732882703  1.0000
  S   S9        1.0  0.5563028547309816  0.95581448689105  0.9108570782650811  1.0000
  S   S10       1.0  0.13956649466241455  0.1898931205937322  0.9286510633572115  1.0000
  S   S11       1.0  0.4072487200031464  0.30176214761911835  0.015189446749971358  1.0000
  S   S12       1.0  0.3331955652286047  0.9145220643807799  0.6308646134498344  1.0000
data_image184
_chemical_formula_structural       Sn4P4S12
_chemical_formula_sum              "Sn4 P4 S12"
_cell_length_a       7.57141576
_cell_length_b       6.596566975487068
_cell_length_c       11.859499654632444
_cell_angle_alpha    56.10713322711195
_cell_angle_beta     90.0
_cell_angle_gamma    90.0

_space_group_name_H-M_alt    "P 1"
_space_group_IT_number       1

loop_
  _space_group_symop_operation_xyz
  'x, y, z'

loop_
  _atom_site_type_symbol
  _atom_site_label
  _atom_site_symmetry_multiplicity
  _atom_site_fract_x
  _atom_site_fract_y
  _atom_site_fract_z
  _atom_site_occupancy
  Sn  Sn1       1.0  0.7476077002195882  0.977114441686203  0.6877438530062324  1.0000
  Sn  Sn2       1.0  0.07923503140096355  0.5655202849020438  0.34013288793975477  1.0000
  Sn  Sn3       1.0  0.3512937464387441  0.39307378350808697  0.6998950657544303  1.0000
  Sn  Sn4       1.0  0.7492035148824183  0.95500706170715  0.17242116429491972  1.0000
  P   P1        1.0  0.5247498665744637  0.5064180735083466  0.2949638114023656  1.0000
  P   P2        1.0  0.5781481319816958  0.4456471679686129  0.14860669832247064  1.0000
  P   P3        1.0  0.25542265470276543  0.7024129625769573  0.9246959931931257  1.0000
  P   P4        1.0  0.7825974561990607  0.8124784762361807  0.42610552655377  1.0000
  S   S1        1.0  0.13771489105079837  0.4409957710814634  0.14514809224804637  1.0000
  S   S2        1.0  0.6538532828767453  0.5078821940341042  0.4514493332505202  1.0000
  S   S3        1.0  0.1317131112975447  0.7285280091243471  0.7580159753756938  1.0000
  S   S4        1.0  0.47762565820278585  0.12701991612194163  0.38525831051569503  1.0000
  S   S5        1.0  0.02547756292275711  0.9428386995460136  0.8879963450304685  1.0000
  S   S6        1.0  0.8007659443878046  0.6417360196945484  0.6193423893101266  1.0000
  S   S7        1.0  0.3725747821204291  0.7647995886171772  0.3110513920245913  1.0000
  S   S8        1.0  0.858664791600434  0.4920618516892896  0.09577305742631448  1.0000
  S   S9        1.0  0.48193806704472103  0.923767665001759  0.9041301441769227  1.0000
  S   S10       1.0  0.04321574681753937  0.0963014698212672  0.9979030227879923  1.0000
  S   S11       1.0  0.4625602142801338  0.4469460458989196  0.9697131510642778  1.0000
  S   S12       1.0  0.3442213214473677  0.8193988944714863  0.6220187835556328  1.0000
data_image185
_chemical_formula_structural       Sn4P4S12
_chemical_formula_sum              "Sn4 P4 S12"
_cell_length_a       7.57141576
_cell_length_b       6.596566975487068
_cell_length_c       11.859499654632444
_cell_angle_alpha    56.10713322711195
_cell_angle_beta     90.0
_cell_angle_gamma    90.0

_space_group_name_H-M_alt    "P 1"
_space_group_IT_number       1

loop_
  _space_group_symop_operation_xyz
  'x, y, z'

loop_
  _atom_site_type_symbol
  _atom_site_label
  _atom_site_symmetry_multiplicity
  _atom_site_fract_x
  _atom_site_fract_y
  _atom_site_fract_z
  _atom_site_occupancy
  Sn  Sn1       1.0  0.7124502766650118  0.968783636252784  0.6885913912789382  1.0000
  Sn  Sn2       1.0  0.028907355518287048  0.5516899947572618  0.3163367711194396  1.0000
  Sn  Sn3       1.0  0.37670785403333923  0.34205915922180274  0.718570606069902  1.0000
  Sn  Sn4       1.0  0.72547452996047  0.005990956068914756  0.14427123241006057  1.0000
  P   P1        1.0  0.6516209395798548  0.4709959113776635  0.31399787944468405  1.0000
  P   P2        1.0  0.5690295567864521  0.42902209660095014  0.1446492396418093  1.0000
  P   P3        1.0  0.33144915779062784  0.6265286391426715  0.956795316193688  1.0000
  P   P4        1.0  0.7622604459691168  0.8230468831613262  0.4548224223269834  1.0000
  S   S1        1.0  0.1996656682665039  0.47461346122028636  0.13980364803062195  1.0000
  S   S2        1.0  0.6846125267316604  0.4559020198490751  0.5269910714500649  1.0000
  S   S3        1.0  0.12312043555723107  0.6974082159974098  0.7886695835195395  1.0000
  S   S4        1.0  0.5689497241814037  0.010845394108021655  0.4095270097690661  1.0000
  S   S5        1.0  0.01866585311128245  0.26655260562858224  0.8221446710262854  1.0000
  S   S6        1.0  0.9007965525005486  0.7051616420740607  0.6070321550838309  1.0000
  S   S7        1.0  0.4104971798709933  0.6404816064112486  0.3169770884040365  1.0000
  S   S8        1.0  0.8072191240158504  0.5354280044815112  0.05489670420212578  1.0000
  S   S9        1.0  0.41242250159171634  0.9330692601951885  0.9389421726788343  1.0000
  S   S10       1.0  0.020703681870906432  0.09127729157846909  0.010650645917934742  1.0000
  S   S11       1.0  0.4607962317742861  0.37071644086912325  0.923653127941221  1.0000
  S   S12       1.0  0.3258548237996093  0.9493215704511271  0.6528623276214824  1.0000
data_image186
_chemical_formula_structural       Sn4P4S12
_chemical_formula_sum              "Sn4 P4 S12"
_cell_length_a       7.57141576
_cell_length_b       6.596566975487068
_cell_length_c       11.859499654632444
_cell_angle_alpha    56.10713322711195
_cell_angle_beta     90.0
_cell_angle_gamma    90.0

_space_group_name_H-M_alt    "P 1"
_space_group_IT_number       1

loop_
  _space_group_symop_operation_xyz
  'x, y, z'

loop_
  _atom_site_type_symbol
  _atom_site_label
  _atom_site_symmetry_multiplicity
  _atom_site_fract_x
  _atom_site_fract_y
  _atom_site_fract_z
  _atom_site_occupancy
  Sn  Sn1       1.0  0.6254467189745387  0.9040376653356978  0.6903889946385602  1.0000
  Sn  Sn2       1.0  0.1053073858747493  0.5067188058617522  0.30781056568571696  1.0000
  Sn  Sn3       1.0  0.3829622699849361  0.3062003012182042  0.7377558111627003  1.0000
  Sn  Sn4       1.0  0.736375926762733  0.09119474762715982  0.11488090839583688  1.0000
  P   P1        1.0  0.6075357039241603  0.34014416467289565  0.3576822087798045  1.0000
  P   P2        1.0  0.5547154956453231  0.5319201341490039  0.12480970361184075  1.0000
  P   P3        1.0  0.3710898938146501  0.636155584981677  0.9367496494722445  1.0000
  P   P4        1.0  0.7310339106129988  0.8369078934095739  0.4261245750376549  1.0000
  S   S1        1.0  0.22065343992094322  0.42432582889791476  0.12779507989104189  1.0000
  S   S2        1.0  0.6315814560402866  0.46638448070828536  0.5355653498088803  1.0000
  S   S3        1.0  0.14351344336414673  0.7296110353901841  0.7916370525254856  1.0000
  S   S4        1.0  0.49970284968031414  0.9739950366322292  0.4663310284114547  1.0000
  S   S5        1.0  0.004326802498425171  0.3941645767838472  0.838773578240954  1.0000
  S   S6        1.0  0.9159309491833558  0.9111622992251307  0.5174352881395009  1.0000
  S   S7        1.0  0.4067837980611206  0.5784560555644462  0.3831876518771794  1.0000
  S   S8        1.0  0.8364125097849102  0.4181878193017782  0.12675493557664796  1.0000
  S   S9        1.0  0.4927757988838798  0.8889527086705622  0.976571179744619  1.0000
  S   S10       1.0  0.017980181506869086  0.02216044074733159  0.005826825903034516  1.0000
  S   S11       1.0  0.5242758287110182  0.4360335789312362  0.8942381210830985  1.0000
  S   S12       1.0  0.2640331689739346  0.12104538226221961  0.6133064041071044  1.0000
data_image187
_chemical_formula_structural       Sn4P4S12
_chemical_formula_sum              "Sn4 P4 S12"
_cell_length_a       7.57141576
_cell_length_b       6.596566975487068
_cell_length_c       11.859499654632444
_cell_angle_alpha    56.10713322711195
_cell_angle_beta     90.0
_cell_angle_gamma    90.0

_space_group_name_H-M_alt    "P 1"
_space_group_IT_number       1

loop_
  _space_group_symop_operation_xyz
  'x, y, z'

loop_
  _atom_site_type_symbol
  _atom_site_label
  _atom_site_symmetry_multiplicity
  _atom_site_fract_x
  _atom_site_fract_y
  _atom_site_fract_z
  _atom_site_occupancy
  Sn  Sn1       1.0  0.6485333935734179  0.8700748771023357  0.6871535679358102  1.0000
  Sn  Sn2       1.0  0.11891363892447493  0.43505488055619557  0.3533878519158257  1.0000
  Sn  Sn3       1.0  0.34563813445204067  0.33641988271738776  0.7188734930499554  1.0000
  Sn  Sn4       1.0  0.7559307500481514  0.9883933062154858  0.15559670076467655  1.0000
  P   P1        1.0  0.5835493188574525  0.38159792557901895  0.3353625996125351  1.0000
  P   P2        1.0  0.5645665719418967  0.5624120591256676  0.11703715977264162  1.0000
  P   P3        1.0  0.3844566672540981  0.6677451420941375  0.9206174244586417  1.0000
  P   P4        1.0  0.6585396012749809  0.810277471709769  0.41928554645096455  1.0000
  S   S1        1.0  0.26060599408135676  0.3946600711173577  0.1191170431840789  1.0000
  S   S2        1.0  0.7369847539994597  0.52541913939129  0.6183667362571593  1.0000
  S   S3        1.0  0.1703472939742996  0.747362771398342  0.7881869161740638  1.0000
  S   S4        1.0  0.4511055375642837  0.03318376148737889  0.3655977014870278  1.0000
  S   S5        1.0  0.9279318580931643  0.4188134961207378  0.8568723478818998  1.0000
  S   S6        1.0  0.8669289780205229  0.12113605339645753  0.387343607616914  1.0000
  S   S7        1.0  0.4591240816211891  0.6292092349404586  0.3822807339675521  1.0000
  S   S8        1.0  0.8232006513767538  0.47608369623218905  0.1077620174470948  1.0000
  S   S9        1.0  0.5250720935496774  0.9912585072358947  0.9410482268324865  1.0000
  S   S10       1.0  0.06902711140082773  0.09174824640351165  0.9790971419418698  1.0000
  S   S11       1.0  0.5076436113210743  0.4095198011398071  0.918213946516869  1.0000
  S   S12       1.0  0.16135356676261448  0.11162636116983393  0.6263500046454331  1.0000
data_image188
_chemical_formula_structural       Sn4P4S12
_chemical_formula_sum              "Sn4 P4 S12"
_cell_length_a       7.57141576
_cell_length_b       6.596566975487068
_cell_length_c       11.859499654632444
_cell_angle_alpha    56.10713322711195
_cell_angle_beta     90.0
_cell_angle_gamma    90.0

_space_group_name_H-M_alt    "P 1"
_space_group_IT_number       1

loop_
  _space_group_symop_operation_xyz
  'x, y, z'

loop_
  _atom_site_type_symbol
  _atom_site_label
  _atom_site_symmetry_multiplicity
  _atom_site_fract_x
  _atom_site_fract_y
  _atom_site_fract_z
  _atom_site_occupancy
  Sn  Sn1       1.0  0.6706388252996819  0.8117341858464655  0.687657317083482  1.0000
  Sn  Sn2       1.0  0.12971496549777162  0.33325838831009813  0.36679483511026373  1.0000
  Sn  Sn3       1.0  0.35088772691252834  0.39649173842852603  0.69736006362496  1.0000
  Sn  Sn4       1.0  0.7222561454603309  0.993095929884598  0.15322583258485772  1.0000
  P   P1        1.0  0.5614695316779668  0.47609387322629315  0.33622775549057454  1.0000
  P   P2        1.0  0.6173539519270687  0.6242778501038946  0.09845348200262334  1.0000
  P   P3        1.0  0.3840432177093436  0.6637049667780216  0.9697961816935748  1.0000
  P   P4        1.0  0.64297623829832  0.7976475527376887  0.45502662012309675  1.0000
  S   S1        1.0  0.20987873298762016  0.5174316356686702  0.12656708072431866  1.0000
  S   S2        1.0  0.7375909931525979  0.46717690906851633  0.6584495483935767  1.0000
  S   S3        1.0  0.2410695666541991  0.7715354358529758  0.7729887091233457  1.0000
  S   S4        1.0  0.4127981490954649  0.0975401557461334  0.42456316705926794  1.0000
  S   S5        1.0  0.9955220743974843  0.3523938544384582  0.9168816163326814  1.0000
  S   S6        1.0  0.8468141754479444  0.0633451798264524  0.4236593671489337  1.0000
  S   S7        1.0  0.3760550179613894  0.7292009074371074  0.27201649842146225  1.0000
  S   S8        1.0  0.8379273545507553  0.5990349494867149  0.01389932252656001  1.0000
  S   S9        1.0  0.5856232852086218  0.00517404056860843  0.9122792039340399  1.0000
  S   S10       1.0  0.12397792434518096  0.12590535023921234  0.877108862594409  1.0000
  S   S11       1.0  0.5122560060177518  0.4233316953479642  0.9262653974486856  1.0000
  S   S12       1.0  0.04728608390346145  0.015198699489545775  0.7355965189605338  1.0000
data_image189
_chemical_formula_structural       Sn4P4S12
_chemical_formula_sum              "Sn4 P4 S12"
_cell_length_a       7.57141576
_cell_length_b       6.596566975487068
_cell_length_c       11.859499654632444
_cell_angle_alpha    56.10713322711195
_cell_angle_beta     90.0
_cell_angle_gamma    90.0

_space_group_name_H-M_alt    "P 1"
_space_group_IT_number       1

loop_
  _space_group_symop_operation_xyz
  'x, y, z'

loop_
  _atom_site_type_symbol
  _atom_site_label
  _atom_site_symmetry_multiplicity
  _atom_site_fract_x
  _atom_site_fract_y
  _atom_site_fract_z
  _atom_site_occupancy
  Sn  Sn1       1.0  0.7057291984865194  0.7696151310205501  0.7605296933591854  1.0000
  Sn  Sn2       1.0  0.10673817751534087  0.33579755757694296  0.39603694690434477  1.0000
  Sn  Sn3       1.0  0.37358960081480475  0.45959204721714675  0.6802835723791041  1.0000
  Sn  Sn4       1.0  0.7399990084035973  0.10444600293385099  0.0980986598577903  1.0000
  P   P1        1.0  0.5472754002709757  0.49967603477421574  0.3021362455771035  1.0000
  P   P2        1.0  0.5964434434741153  0.6643526604368906  0.05262761525958381  1.0000
  P   P3        1.0  0.3866272721811843  0.6429006586424071  0.9653829750205394  1.0000
  P   P4        1.0  0.635044505836122  0.8143894734066038  0.3997334438985959  1.0000
  S   S1        1.0  0.1610323889607881  0.44889226702732227  0.10838621120088421  1.0000
  S   S2        1.0  0.6704465185847207  0.40301853765294965  0.5284353786863867  1.0000
  S   S3        1.0  0.2584977236067727  0.8377420934476469  0.7447197671223212  1.0000
  S   S4        1.0  0.4429176547518718  0.13467016172817803  0.472421704370305  1.0000
  S   S5        1.0  0.9647395665599927  0.21109332098423916  0.9456950213035805  1.0000
  S   S6        1.0  0.8405909928202289  0.9091022978461116  0.4496040134711611  1.0000
  S   S7        1.0  0.30928396913686274  0.7181598412691947  0.2568182844437214  1.0000
  S   S8        1.0  0.9437457833661538  0.666347542089585  0.061845155376489824  1.0000
  S   S9        1.0  0.573215366277254  0.021599276726861582  0.8731205835124467  1.0000
  S   S10       1.0  0.12310653616940459  0.9946886602736755  0.9376335970706634  1.0000
  S   S11       1.0  0.4539936756686739  0.32170795301905675  0.9553245001647916  1.0000
  S   S12       1.0  0.03410387827298078  0.9384015059413822  0.7541398988702874  1.0000
data_image190
_chemical_formula_structural       Sn4P4S12
_chemical_formula_sum              "Sn4 P4 S12"
_cell_length_a       7.57141576
_cell_length_b       6.596566975487068
_cell_length_c       11.859499654632444
_cell_angle_alpha    56.10713322711195
_cell_angle_beta     90.0
_cell_angle_gamma    90.0

_space_group_name_H-M_alt    "P 1"
_space_group_IT_number       1

loop_
  _space_group_symop_operation_xyz
  'x, y, z'

loop_
  _atom_site_type_symbol
  _atom_site_label
  _atom_site_symmetry_multiplicity
  _atom_site_fract_x
  _atom_site_fract_y
  _atom_site_fract_z
  _atom_site_occupancy
  Sn  Sn1       1.0  0.7599214415185114  0.6635187495702224  0.7881191695914388  1.0000
  Sn  Sn2       1.0  0.07973636340382462  0.3325629059692681  0.4008808024156698  1.0000
  Sn  Sn3       1.0  0.39026855459675563  0.4681818704135303  0.6665244052550303  1.0000
  Sn  Sn4       1.0  0.7053214564783534  0.040936376474916866  0.11516903943338667  1.0000
  P   P1        1.0  0.31917138558882174  0.5661968487974125  0.24486372946140983  1.0000
  P   P2        1.0  0.5467386798431537  0.8116010837480605  0.028150925851893504  1.0000
  P   P3        1.0  0.36885780482378305  0.5710529774573234  0.9729934745339082  1.0000
  P   P4        1.0  0.7182471938687001  0.9016302343910547  0.38904200288618357  1.0000
  S   S1        1.0  0.09025468681485904  0.321928442061545  0.11942427722007509  1.0000
  S   S2        1.0  0.6892188516630131  0.5690412191000788  0.4542586075756073  1.0000
  S   S3        1.0  0.21051717369720957  0.7663351620097703  0.7739930170199155  1.0000
  S   S4        1.0  0.4113333488009766  0.16762609282414742  0.44741991292855576  1.0000
  S   S5        1.0  0.9913715511258852  0.35387002888595365  0.868322393778315  1.0000
  S   S6        1.0  0.9506045023070606  0.9086483992970303  0.4889033055743649  1.0000
  S   S7        1.0  0.29528953566290483  0.7897864649811419  0.30549167716087694  1.0000
  S   S8        1.0  0.9421964227547839  0.5696569809099616  0.11425739995236839  1.0000
  S   S9        1.0  0.6664744484390009  0.07846203846314845  0.8612946379476312  1.0000
  S   S10       1.0  0.14329579078332166  0.05615813811876624  0.9265891927125185  1.0000
  S   S11       1.0  0.4770515066508512  0.3114930386598418  0.9408663893855311  1.0000
  S   S12       1.0  0.0780966685380644  0.09917123057514521  0.7399032701763706  1.0000
data_image191
_chemical_formula_structural       Sn4P4S12
_chemical_formula_sum              "Sn4 P4 S12"
_cell_length_a       7.57141576
_cell_length_b       6.596566975487068
_cell_length_c       11.859499654632444
_cell_angle_alpha    56.10713322711195
_cell_angle_beta     90.0
_cell_angle_gamma    90.0

_space_group_name_H-M_alt    "P 1"
_space_group_IT_number       1

loop_
  _space_group_symop_operation_xyz
  'x, y, z'

loop_
  _atom_site_type_symbol
  _atom_site_label
  _atom_site_symmetry_multiplicity
  _atom_site_fract_x
  _atom_site_fract_y
  _atom_site_fract_z
  _atom_site_occupancy
  Sn  Sn1       1.0  0.7654864107577757  0.6633755636081404  0.7805214730349401  1.0000
  Sn  Sn2       1.0  0.027432045919923764  0.36536757787426355  0.4361759115925481  1.0000
  Sn  Sn3       1.0  0.33564911684367754  0.5217263717122737  0.6377526210258891  1.0000
  Sn  Sn4       1.0  0.7830589705868248  0.9582747094346278  0.12722444529914242  1.0000
  P   P1        1.0  0.34886171745165784  0.5697188830022869  0.24086408701890022  1.0000
  P   P2        1.0  0.4379553903910601  0.8982649410464476  0.9527061400150831  1.0000
  P   P3        1.0  0.25105564015257775  0.6054062037999043  0.995848797902998  1.0000
  P   P4        1.0  0.776489032718372  0.9117289790924826  0.39140387683365196  1.0000
  S   S1        1.0  0.09599669352574125  0.23189449045533309  0.18952824283849856  1.0000
  S   S2        1.0  0.6506402868449208  0.5970690587849391  0.5105379272745946  1.0000
  S   S3        1.0  0.34811667793515255  0.8213479645133843  0.7826779741033119  1.0000
  S   S4        1.0  0.4570571909975748  0.2222812537527422  0.3818057510296941  1.0000
  S   S5        1.0  0.14255677679761017  0.41132373702882175  0.8757060137399031  1.0000
  S   S6        1.0  0.966181567392637  0.8439043494915438  0.515481597870646  1.0000
  S   S7        1.0  0.2148199180241158  0.7308261925149072  0.3272648383537728  1.0000
  S   S8        1.0  0.8483969393216471  0.35813325658697015  0.12636056185595224  1.0000
  S   S9        1.0  0.6352038890834872  0.005091979151868338  0.7772112664530424  1.0000
  S   S10       1.0  0.16339259320817645  0.058540561720398676  0.9083192695139977  1.0000
  S   S11       1.0  0.5531873962850361  0.35494577700940044  0.9702043856558666  1.0000
  S   S12       1.0  0.09414188660827838  0.21178245769254478  0.6874615503630117  1.0000
data_image192
_chemical_formula_structural       Sn4P4S12
_chemical_formula_sum              "Sn4 P4 S12"
_cell_length_a       7.57141576
_cell_length_b       6.596566975487068
_cell_length_c       11.859499654632444
_cell_angle_alpha    56.10713322711195
_cell_angle_beta     90.0
_cell_angle_gamma    90.0

_space_group_name_H-M_alt    "P 1"
_space_group_IT_number       1

loop_
  _space_group_symop_operation_xyz
  'x, y, z'

loop_
  _atom_site_type_symbol
  _atom_site_label
  _atom_site_symmetry_multiplicity
  _atom_site_fract_x
  _atom_site_fract_y
  _atom_site_fract_z
  _atom_site_occupancy
  Sn  Sn1       1.0  0.7388534582970101  0.6970687363459516  0.774628296746544  1.0000
  Sn  Sn2       1.0  0.97147178180874  0.3045246264964272  0.4720046351186057  1.0000
  Sn  Sn3       1.0  0.3116653005598915  0.6368547119172008  0.6013394769833169  1.0000
  Sn  Sn4       1.0  0.8342652165153059  0.9657624940470704  0.10529994658030413  1.0000
  P   P1        1.0  0.45413977542353184  0.48658061197188107  0.2818277187710298  1.0000
  P   P2        1.0  0.5071572551542992  0.9685936999445479  0.9576937846659322  1.0000
  P   P3        1.0  0.2823469604637409  0.6797077531135942  0.9642082421748948  1.0000
  P   P4        1.0  0.652824065492135  0.9586025045656184  0.3712852875259283  1.0000
  S   S1        1.0  0.2002579667120754  0.2830195031829276  0.11381715226292699  1.0000
  S   S2        1.0  0.6999165131227623  0.5687828779625864  0.578125446679661  1.0000
  S   S3        1.0  0.39989229673121707  0.7231863236928866  0.7518014187427058  1.0000
  S   S4        1.0  0.4332294632907057  0.1222451059194879  0.376936620579255  1.0000
  S   S5        1.0  0.10142478819909201  0.2244978697975052  0.9728985187899832  1.0000
  S   S6        1.0  0.9486946873796653  0.9950221706565144  0.42800139734152154  1.0000
  S   S7        1.0  0.2647695882289336  0.6119575803737501  0.3367304357482472  1.0000
  S   S8        1.0  0.7941944640413703  0.4464610201031961  0.10370475172476046  1.0000
  S   S9        1.0  0.6916803903837878  0.07959678298226341  0.833847169410922  1.0000
  S   S10       1.0  0.06427554832794691  0.9044447376089386  0.9442222285680234  1.0000
  S   S11       1.0  0.6321913266647725  0.35334484833320334  0.9985441529994614  1.0000
  S   S12       1.0  0.06487119356311788  0.07907446761210213  0.7252568222976883  1.0000
data_image193
_chemical_formula_structural       Sn4P4S12
_chemical_formula_sum              "Sn4 P4 S12"
_cell_length_a       7.57141576
_cell_length_b       6.596566975487068
_cell_length_c       11.859499654632444
_cell_angle_alpha    56.10713322711195
_cell_angle_beta     90.0
_cell_angle_gamma    90.0

_space_group_name_H-M_alt    "P 1"
_space_group_IT_number       1

loop_
  _space_group_symop_operation_xyz
  'x, y, z'

loop_
  _atom_site_type_symbol
  _atom_site_label
  _atom_site_symmetry_multiplicity
  _atom_site_fract_x
  _atom_site_fract_y
  _atom_site_fract_z
  _atom_site_occupancy
  Sn  Sn1       1.0  0.7796263560841419  0.7864264119855036  0.7601441226833875  1.0000
  Sn  Sn2       1.0  0.8904297614382661  0.3288921609033282  0.5088195929966235  1.0000
  Sn  Sn3       1.0  0.2753365194031837  0.6571037283097838  0.5550040108127988  1.0000
  Sn  Sn4       1.0  0.8240844933134515  0.8859072666918645  0.12312485307137072  1.0000
  P   P1        1.0  0.609523181219969  0.5547750331225361  0.293668131047267  1.0000
  P   P2        1.0  0.43505373460312974  0.9513332494608808  0.020767935186645443  1.0000
  P   P3        1.0  0.41999327999541675  0.7563929055353217  0.9391485898395608  1.0000
  P   P4        1.0  0.6454665815529068  0.8133196826628443  0.4074130823753651  1.0000
  S   S1        1.0  0.22755364224364127  0.33790150840483485  0.10419340793189047  1.0000
  S   S2        1.0  0.6357298738695356  0.525296099112898  0.6024795724359215  1.0000
  S   S3        1.0  0.399972511402483  0.8696775912358676  0.7135677936573733  1.0000
  S   S4        1.0  0.42420342183851645  0.02411742119202709  0.32822681790702035  1.0000
  S   S5        1.0  0.1746908550273194  0.17110642265329862  0.9898867875202938  1.0000
  S   S6        1.0  0.8769271487198678  0.992276173259479  0.38576813797459997  1.0000
  S   S7        1.0  0.35490095116864045  0.5832435919723793  0.2846777841112082  1.0000
  S   S8        1.0  0.7126731039090728  0.4537456789050446  0.15749178594883761  1.0000
  S   S9        1.0  0.7183675862562809  0.04014288948835321  0.8749113808330105  1.0000
  S   S10       1.0  0.09913090359819465  0.7126577841980231  0.966576797699618  1.0000
  S   S11       1.0  0.6154241154236352  0.3850770737556224  0.01082377758504005  1.0000
  S   S12       1.0  0.16630619972536098  0.11508930942050977  0.6839507581885975  1.0000
data_image194
_chemical_formula_structural       Sn4P4S12
_chemical_formula_sum              "Sn4 P4 S12"
_cell_length_a       7.57141576
_cell_length_b       6.596566975487068
_cell_length_c       11.859499654632444
_cell_angle_alpha    56.10713322711195
_cell_angle_beta     90.0
_cell_angle_gamma    90.0

_space_group_name_H-M_alt    "P 1"
_space_group_IT_number       1

loop_
  _space_group_symop_operation_xyz
  'x, y, z'

loop_
  _atom_site_type_symbol
  _atom_site_label
  _atom_site_symmetry_multiplicity
  _atom_site_fract_x
  _atom_site_fract_y
  _atom_site_fract_z
  _atom_site_occupancy
  Sn  Sn1       1.0  0.8138147704244998  0.783694172261135  0.7781852632213219  1.0000
  Sn  Sn2       1.0  0.8791353229186092  0.27033881441092666  0.5291553992691126  1.0000
  Sn  Sn3       1.0  0.2213781499492219  0.7238618938469685  0.5040128222783602  1.0000
  Sn  Sn4       1.0  0.8507125855759318  0.950083622072324  0.10337007984972871  1.0000
  P   P1        1.0  0.5853831630630087  0.4916036791961448  0.3949169618130203  1.0000
  P   P2        1.0  0.4843757179006951  0.7678347486645465  0.10253966335559786  1.0000
  P   P3        1.0  0.4488012371905535  0.7094540646894598  0.9495445048169261  1.0000
  P   P4        1.0  0.6060438919813276  0.8161053822070514  0.38252521699759057  1.0000
  S   S1        1.0  0.0721123853168657  0.2730803741581292  0.09749657194938455  1.0000
  S   S2        1.0  0.5700280214633591  0.4676328969147892  0.5698998908215278  1.0000
  S   S3        1.0  0.41510232985395445  0.9366540759639215  0.7231851207600712  1.0000
  S   S4        1.0  0.4316932179873202  0.08557109655640893  0.2781520231467321  1.0000
  S   S5        1.0  0.21139587978150237  0.22803481660375896  0.9827202627293539  1.0000
  S   S6        1.0  0.8470536299455276  0.9280550884083312  0.44043762919869844  1.0000
  S   S7        1.0  0.2965751404036318  0.6128197274675838  0.2878241959450406  1.0000
  S   S8        1.0  0.7031482486367573  0.3379477794509068  0.16322901773177212  1.0000
  S   S9        1.0  0.7968006282262662  0.06763528905395236  0.8763017086210929  1.0000
  S   S10       1.0  0.17773704559464476  0.6704818267795167  0.9335123593754787  1.0000
  S   S11       1.0  0.6224052821546517  0.4183345406941783  0.960432441892737  1.0000
  S   S12       1.0  0.26603993705023443  0.21301360959506976  0.7448894144918345  1.0000
data_image195
_chemical_formula_structural       Sn4P4S12
_chemical_formula_sum              "Sn4 P4 S12"
_cell_length_a       7.57141576
_cell_length_b       6.596566975487068
_cell_length_c       11.859499654632444
_cell_angle_alpha    56.10713322711195
_cell_angle_beta     90.0
_cell_angle_gamma    90.0

_space_group_name_H-M_alt    "P 1"
_space_group_IT_number       1

loop_
  _space_group_symop_operation_xyz
  'x, y, z'

loop_
  _atom_site_type_symbol
  _atom_site_label
  _atom_site_symmetry_multiplicity
  _atom_site_fract_x
  _atom_site_fract_y
  _atom_site_fract_z
  _atom_site_occupancy
  Sn  Sn1       1.0  0.8460900101243704  0.7472736986053421  0.8196341126479849  1.0000
  Sn  Sn2       1.0  0.9428109721451932  0.27530694228387187  0.5151126069529595  1.0000
  Sn  Sn3       1.0  0.1309153141241053  0.7634583679913285  0.4852347089589495  1.0000
  Sn  Sn4       1.0  0.8664847086071282  0.991767365632418  0.07428440303052754  1.0000
  P   P1        1.0  0.46361275626623605  0.4285737562741756  0.321931786716174  1.0000
  P   P2        1.0  0.5347538948990992  0.7286610473492865  0.14215540958631964  1.0000
  P   P3        1.0  0.4588294395432053  0.6019953939126748  0.01805933082941617  1.0000
  P   P4        1.0  0.5936331980136115  0.9015415238650363  0.36256603837795837  1.0000
  S   S1        1.0  0.13012747388147083  0.26826123613125424  0.09639455665529617  1.0000
  S   S2        1.0  0.49941495732643687  0.5306253834409124  0.4784792989892882  1.0000
  S   S3        1.0  0.42436189285444614  0.8547222818200153  0.8201416578651473  1.0000
  S   S4        1.0  0.35617243893199546  0.10337454162436366  0.32059745658317446  1.0000
  S   S5        1.0  0.2515054606862617  0.051273470834648505  0.9791764141081216  1.0000
  S   S6        1.0  0.789056288933581  0.8731325619248975  0.534384218610979  1.0000
  S   S7        1.0  0.26357180382617046  0.6653087311897586  0.224292426262947  1.0000
  S   S8        1.0  0.7338765633838562  0.36591151003476086  0.14852582542242754  1.0000
  S   S9        1.0  0.8561296643993543  0.14179532167931824  0.8016878226854867  1.0000
  S   S10       1.0  0.10926217802975702  0.6726956318687367  0.9496981553082439  1.0000
  S   S11       1.0  0.6109170458075803  0.3985549899998051  0.9777158737632514  1.0000
  S   S12       1.0  0.375064175693381  0.24314114644546692  0.7895866775868263  1.0000
data_image196
_chemical_formula_structural       Sn4P4S12
_chemical_formula_sum              "Sn4 P4 S12"
_cell_length_a       7.57141576
_cell_length_b       6.596566975487068
_cell_length_c       11.859499654632444
_cell_angle_alpha    56.10713322711195
_cell_angle_beta     90.0
_cell_angle_gamma    90.0

_space_group_name_H-M_alt    "P 1"
_space_group_IT_number       1

loop_
  _space_group_symop_operation_xyz
  'x, y, z'

loop_
  _atom_site_type_symbol
  _atom_site_label
  _atom_site_symmetry_multiplicity
  _atom_site_fract_x
  _atom_site_fract_y
  _atom_site_fract_z
  _atom_site_occupancy
  Sn  Sn1       1.0  0.8443473591849847  0.8020107903978995  0.8135365923910142  1.0000
  Sn  Sn2       1.0  0.9804505137703445  0.2745083987709602  0.4996938898853934  1.0000
  Sn  Sn3       1.0  0.08207085243718713  0.6800824411657729  0.5208217966479878  1.0000
  Sn  Sn4       1.0  0.9167150019655715  0.05859084251866413  0.06238479281164107  1.0000
  P   P1        1.0  0.4230593899237425  0.46676481549844917  0.3160786876953823  1.0000
  P   P2        1.0  0.5127724212316146  0.6539160307907403  0.11289156517296577  1.0000
  P   P3        1.0  0.35012292975346626  0.5864988460956507  0.9858271660321769  1.0000
  P   P4        1.0  0.6917277913464503  0.8760111188720628  0.39574549582403656  1.0000
  S   S1        1.0  0.17384117978937486  0.1852972844461423  0.11018034898132956  1.0000
  S   S2        1.0  0.5372098738614667  0.5488989309586347  0.4414056261654439  1.0000
  S   S3        1.0  0.4765568270144991  0.8792031686603874  0.7684481918844404  1.0000
  S   S4        1.0  0.3893312722407359  0.11353556327797232  0.32648890548452386  1.0000
  S   S5        1.0  0.2740155309816441  0.030912822653870225  0.9208382438856776  1.0000
  S   S6        1.0  0.6484048048871869  0.027640210494406237  0.490925387906621  1.0000
  S   S7        1.0  0.16479604005200413  0.636635428047774  0.30090599203728446  1.0000
  S   S8        1.0  0.7065563119948262  0.34550092488904205  0.1427968505877002  1.0000
  S   S9        1.0  0.9112158950982319  0.27349055049240245  0.7811737151323557  1.0000
  S   S10       1.0  0.03811691335710432  0.540096047999707  0.05597890931896088  1.0000
  S   S11       1.0  0.5528170538317988  0.3508231948620233  0.0013006695803321477  1.0000
  S   S12       1.0  0.46169494486078433  0.1743566152385343  0.8053528654975273  1.0000
data_image197
_chemical_formula_structural       Sn4P4S12
_chemical_formula_sum              "Sn4 P4 S12"
_cell_length_a       7.57141576
_cell_length_b       6.596566975487068
_cell_length_c       11.859499654632444
_cell_angle_alpha    56.10713322711195
_cell_angle_beta     90.0
_cell_angle_gamma    90.0

_space_group_name_H-M_alt    "P 1"
_space_group_IT_number       1

loop_
  _space_group_symop_operation_xyz
  'x, y, z'

loop_
  _atom_site_type_symbol
  _atom_site_label
  _atom_site_symmetry_multiplicity
  _atom_site_fract_x
  _atom_site_fract_y
  _atom_site_fract_z
  _atom_site_occupancy
  Sn  Sn1       1.0  0.8673697002164388  0.8525161790159455  0.8035588142321033  1.0000
  Sn  Sn2       1.0  0.9987043103471404  0.20873640238968205  0.49479215378730124  1.0000
  Sn  Sn3       1.0  0.06607216995688217  0.7010344138440129  0.520301207336388  1.0000
  Sn  Sn4       1.0  0.9153340999257826  0.985829242130316  0.07540291091554563  1.0000
  P   P1        1.0  0.3836676613838867  0.4284919959765954  0.3166956045067232  1.0000
  P   P2        1.0  0.5008954260607461  0.6530594076465785  0.10460803982026144  1.0000
  P   P3        1.0  0.331525642536171  0.6424853540178599  0.9650508282129853  1.0000
  P   P4        1.0  0.751790692188814  0.8456260985601054  0.4185146823073249  1.0000
  S   S1        1.0  0.22514372830660578  0.33508911432571303  0.10757344570954652  1.0000
  S   S2        1.0  0.6119017886704089  0.5292199571099329  0.5156164314240829  1.0000
  S   S3        1.0  0.5026947948243248  0.8817557729844874  0.7374844679172525  1.0000
  S   S4        1.0  0.3032869463389075  0.08238132235536755  0.3853828305741449  1.0000
  S   S5        1.0  0.20160400493291683  0.03578538294822389  0.877762153585503  1.0000
  S   S6        1.0  0.6341913329935482  0.04088835515819616  0.4785943508511534  1.0000
  S   S7        1.0  0.07516127568247083  0.7263332154332227  0.3038154213360706  1.0000
  S   S8        1.0  0.6375600467208549  0.3272684038891289  0.14987206221618576  1.0000
  S   S9        1.0  0.9642679553309296  0.42211999234958575  0.74495685618554  1.0000
  S   S10       1.0  0.9546313005915956  0.4798968026009014  0.1250786302907423  1.0000
  S   S11       1.0  0.6316093130432724  0.362030655681401  0.9713395003362637  1.0000
  S   S12       1.0  0.5150002274920942  0.148262490240047  0.7617723642546512  1.0000
data_image198
_chemical_formula_structural       Sn4P4S12
_chemical_formula_sum              "Sn4 P4 S12"
_cell_length_a       7.57141576
_cell_length_b       6.596566975487068
_cell_length_c       11.859499654632444
_cell_angle_alpha    56.10713322711195
_cell_angle_beta     90.0
_cell_angle_gamma    90.0

_space_group_name_H-M_alt    "P 1"
_space_group_IT_number       1

loop_
  _space_group_symop_operation_xyz
  'x, y, z'

loop_
  _atom_site_type_symbol
  _atom_site_label
  _atom_site_symmetry_multiplicity
  _atom_site_fract_x
  _atom_site_fract_y
  _atom_site_fract_z
  _atom_site_occupancy
  Sn  Sn1       1.0  0.8974843622451647  0.9219866433757045  0.7778601781442954  1.0000
  Sn  Sn2       1.0  0.00012683732151241855  0.20712352986773142  0.4940646566268246  1.0000
  Sn  Sn3       1.0  0.08710184845315566  0.6838295758150953  0.5653301114071749  1.0000
  Sn  Sn4       1.0  0.8595117767636296  0.856453973857997  0.09466191926552778  1.0000
  P   P1        1.0  0.4176273645654283  0.48895383990997  0.3108046597906502  1.0000
  P   P2        1.0  0.5481750731752212  0.6257287306970154  0.10226255296468209  1.0000
  P   P3        1.0  0.3329221419967975  0.7820054920607354  0.9666570454858006  1.0000
  P   P4        1.0  0.7965181265803517  0.8489887948452836  0.35114106951058077  1.0000
  S   S1        1.0  0.13160799950031654  0.4908802959406647  0.029669353271543297  1.0000
  S   S2        1.0  0.7004490832674237  0.47951521903880256  0.5032680068266318  1.0000
  S   S3        1.0  0.4647134313382191  0.8599048722175386  0.7620105533984268  1.0000
  S   S4        1.0  0.3249205508839698  0.17625727711212913  0.3297012395098479  1.0000
  S   S5        1.0  0.16810914378104397  0.0711216254381984  0.9278034707207737  1.0000
  S   S6        1.0  0.7252168853725016  0.9947673624834366  0.45871814897019436  1.0000
  S   S7        1.0  0.04139851197311025  0.6362201938783117  0.3406474610440527  1.0000
  S   S8        1.0  0.6650199911338446  0.2886847530591703  0.1567480616626331  1.0000
  S   S9        1.0  0.8888066519647231  0.4039535211854486  0.7609667479312738  1.0000
  S   S10       1.0  0.8709512281245864  0.36546809062703267  0.21751000930670594  1.0000
  S   S11       1.0  0.6901632320526817  0.5200092331604982  0.9202053043323228  1.0000
  S   S12       1.0  0.4728278168184159  0.2040173513442246  0.6839841948429393  1.0000
data_image199
_chemical_formula_structural       Sn4P4S12
_chemical_formula_sum              "Sn4 P4 S12"
_cell_length_a       7.57141576
_cell_length_b       6.596566975487068
_cell_length_c       11.859499654632444
_cell_angle_alpha    56.10713322711195
_cell_angle_beta     90.0
_cell_angle_gamma    90.0

_space_group_name_H-M_alt    "P 1"
_space_group_IT_number       1

loop_
  _space_group_symop_operation_xyz
  'x, y, z'

loop_
  _atom_site_type_symbol
  _atom_site_label
  _atom_site_symmetry_multiplicity
  _atom_site_fract_x
  _atom_site_fract_y
  _atom_site_fract_z
  _atom_site_occupancy
  Sn  Sn1       1.0  0.9370774062976611  0.9750692216529568  0.7457927859114778  1.0000
  Sn  Sn2       1.0  0.9980254321372389  0.23824522736278708  0.4950606837922743  1.0000
  Sn  Sn3       1.0  0.04016493884592047  0.6160082044902762  0.6113257443472213  1.0000
  Sn  Sn4       1.0  0.8359291170003931  0.8166052261192569  0.0904466386224352  1.0000
  P   P1        1.0  0.4407944675246701  0.5745686772926142  0.2985243216569076  1.0000
  P   P2        1.0  0.5341350377196894  0.5434188329434466  0.11872046687111838  1.0000
  P   P3        1.0  0.27419881267704455  0.7466609854349424  0.012985447092300696  1.0000
  P   P4        1.0  0.8405513421361753  0.7542618629997573  0.3791200109968603  1.0000
  S   S1        1.0  0.10949155916475206  0.572812707341129  0.9168964762107049  1.0000
  S   S2        1.0  0.6870700424669989  0.4835764122298147  0.40353285461567623  1.0000
  S   S3        1.0  0.384373193321917  0.8118185909297808  0.7987412098323072  1.0000
  S   S4        1.0  0.3260193637109547  0.25597295023593103  0.3378472232353321  1.0000
  S   S5        1.0  0.1911686657395129  0.08585701037881792  0.9893741143412121  1.0000
  S   S6        1.0  0.7341806918366305  0.8494177890495445  0.5103792259002042  1.0000
  S   S7        1.0  0.06775223218155255  0.8615461904979891  0.29778556392946504  1.0000
  S   S8        1.0  0.8019737626836807  0.3681035482559347  0.09963578378769622  1.0000
  S   S9        1.0  0.8424750277116015  0.2538354342767081  0.8069392795041419  1.0000
  S   S10       1.0  0.9794877058411386  0.3866476298749941  0.21304962444388242  1.0000
  S   S11       1.0  0.6439425960551153  0.6151523966955865  0.8796904347579988  1.0000
  S   S12       1.0  0.5057867862830006  0.15318147074457455  0.7210600449187132  1.0000
data_image200
_chemical_formula_structural       Sn4P4S12
_chemical_formula_sum              "Sn4 P4 S12"
_cell_length_a       7.57141576
_cell_length_b       6.596566975487068
_cell_length_c       11.859499654632444
_cell_angle_alpha    56.10713322711195
_cell_angle_beta     90.0
_cell_angle_gamma    90.0

_space_group_name_H-M_alt    "P 1"
_space_group_IT_number       1

loop_
  _space_group_symop_operation_xyz
  'x, y, z'

loop_
  _atom_site_type_symbol
  _atom_site_label
  _atom_site_symmetry_multiplicity
  _atom_site_fract_x
  _atom_site_fract_y
  _atom_site_fract_z
  _atom_site_occupancy
  Sn  Sn1       1.0  0.003989674816211311  0.974757508978366  0.742787147486139  1.0000
  Sn  Sn2       1.0  0.03558404687614214  0.3391383531997638  0.42885583651557685  1.0000
  Sn  Sn3       1.0  0.06324641744397139  0.6134607583410001  0.6431932486892443  1.0000
  Sn  Sn4       1.0  0.8149131097479037  0.7760554130895584  0.08342877074094744  1.0000
  P   P1        1.0  0.40286590751303525  0.5761664522095495  0.26972090831365614  1.0000
  P   P2        1.0  0.5101331481205587  0.43509491681103984  0.14574153888808353  1.0000
  P   P3        1.0  0.28191366048222516  0.7592941867001541  0.9524847983514863  1.0000
  P   P4        1.0  0.8396987355592087  0.7971526779548141  0.42241299780006425  1.0000
  S   S1        1.0  0.12919180822764664  0.5253982993248425  0.9423137482243141  1.0000
  S   S2        1.0  0.7075037477494017  0.5468953048727312  0.35275385451234753  1.0000
  S   S3        1.0  0.3961017420437076  0.9939188419009699  0.6881002961118089  1.0000
  S   S4        1.0  0.3455065528436691  0.2203785173958812  0.4341813707067255  1.0000
  S   S5        1.0  0.1426409210616153  0.028162998356983666  0.9683227234050765  1.0000
  S   S6        1.0  0.602990632923758  0.6979949505109281  0.6307000278932262  1.0000
  S   S7        1.0  0.06702247123546498  0.8715513869143157  0.32240595185606746  1.0000
  S   S8        1.0  0.7760521677937391  0.2111155177728048  0.20092254521786668  1.0000
  S   S9        1.0  0.6689053626094076  0.24891415571265024  0.851835065720443  1.0000
  S   S10       1.0  0.9943952030080103  0.33903925290036097  0.20734548635300754  1.0000
  S   S11       1.0  0.6054131132578237  0.6030222730303634  0.8065406904453554  1.0000
  S   S12       1.0  0.4938244949309236  0.2462853919420237  0.7554007120401094  1.0000
