data_image0
_chemical_formula_structural       Eu10Cd4Sb10O2
_chemical_formula_sum              "Eu10 Cd4 Sb10 O2"
_cell_length_a       11.24426501306804
_cell_length_b       11.24426501306804
_cell_length_c       14.850709
_cell_angle_alpha    90.0
_cell_angle_beta     90.0
_cell_angle_gamma    155.89846091665316

_space_group_name_H-M_alt    "P 1"
_space_group_IT_number       1

loop_
  _space_group_symop_operation_xyz
  'x, y, z'

loop_
  _atom_site_type_symbol
  _atom_site_label
  _atom_site_symmetry_multiplicity
  _atom_site_fract_x
  _atom_site_fract_y
  _atom_site_fract_z
  _atom_site_occupancy
  Eu  Eu1       1.0  0.723347  0.27665300000000004  0.8717950000000001  1.0000
  Eu  Eu2       1.0  0.276653  0.723347  0.128205  1.0000
  Eu  Eu3       1.0  0.723347  0.27665300000000004  0.6282050000000001  1.0000
  Eu  Eu4       1.0  0.276653  0.723347  0.37179500000000004  1.0000
  Eu  Eu5       1.0  0.8932210000000002  0.10677900000000003  0.25  1.0000
  Eu  Eu6       1.0  0.10677899999999994  0.893221  0.7500000000000001  1.0000
  Eu  Eu7       1.0  0.09591800000000003  0.9040820000000002  0.25  1.0000
  Eu  Eu8       1.0  0.904082  0.09591799999999996  0.7500000000000001  1.0000
  Eu  Eu9       1.0  0.0  0.0  0.5  1.0000
  Eu  Eu10      1.0  0.0  0.0  0.0  1.0000
  Cd  Cd1       1.0  0.6317300000000001  0.36827  0.41442500000000004  1.0000
  Cd  Cd2       1.0  0.36827  0.6317299999999999  0.5855750000000002  1.0000
  Cd  Cd3       1.0  0.6317300000000001  0.36827  0.08557500000000003  1.0000
  Cd  Cd4       1.0  0.36827  0.6317299999999999  0.9144250000000003  1.0000
  Sb  Sb1       1.0  0.8499470000000001  0.15005300000000002  0.4770580000000001  1.0000
  Sb  Sb2       1.0  0.15005299999999994  0.849947  0.522942  1.0000
  Sb  Sb3       1.0  0.8499470000000001  0.15005300000000002  0.022942000000000008  1.0000
  Sb  Sb4       1.0  0.15005299999999994  0.849947  0.9770580000000002  1.0000
  Sb  Sb5       1.0  0.503344  0.496656  0.34868800000000005  1.0000
  Sb  Sb6       1.0  0.49665600000000004  0.503344  0.6513120000000002  1.0000
  Sb  Sb7       1.0  0.503344  0.496656  0.151312  1.0000
  Sb  Sb8       1.0  0.49665600000000004  0.503344  0.8486880000000002  1.0000
  Sb  Sb9       1.0  0.7068720000000002  0.29312800000000006  0.25  1.0000
  Sb  Sb10      1.0  0.2931280000000001  0.706872  0.7500000000000001  1.0000
  O   O1        1.0  0.341551  0.658449  0.25  1.0000
  O   O2        1.0  0.6584490000000001  0.341551  0.7500000000000001  1.0000
data_image1
_chemical_formula_structural       Eu10Cd4Sb10O2
_chemical_formula_sum              "Eu10 Cd4 Sb10 O2"
_cell_length_a       11.24426501306804
_cell_length_b       11.24426501306804
_cell_length_c       14.850709
_cell_angle_alpha    90.0
_cell_angle_beta     90.0
_cell_angle_gamma    155.89846091665316

_space_group_name_H-M_alt    "P 1"
_space_group_IT_number       1

loop_
  _space_group_symop_operation_xyz
  'x, y, z'

loop_
  _atom_site_type_symbol
  _atom_site_label
  _atom_site_symmetry_multiplicity
  _atom_site_fract_x
  _atom_site_fract_y
  _atom_site_fract_z
  _atom_site_occupancy
  Eu  Eu1       1.0  0.7251199571227898  0.27365204418487354  0.8469946169682949  1.0000
  Eu  Eu2       1.0  0.25769402696275917  0.7059553984788318  0.135916332331788  1.0000
  Eu  Eu3       1.0  0.7601091350636564  0.287008137761402  0.6223343144931883  1.0000
  Eu  Eu4       1.0  0.2970590074173696  0.7493310787361203  0.3899744746424387  1.0000
  Eu  Eu5       1.0  0.9066146465954449  0.14149208336963895  0.23954171364526491  1.0000
  Eu  Eu6       1.0  0.14394747878618092  0.9274153008025449  0.7703999967252645  1.0000
  Eu  Eu7       1.0  0.07428535558167133  0.904215964492157  0.2533306112071023  1.0000
  Eu  Eu8       1.0  0.955804050224932  0.12099016296311099  0.7509363726196009  1.0000
  Eu  Eu9       1.0  0.9989345919096576  0.0007467236345719226  0.4979629215263711  1.0000
  Eu  Eu10      1.0  0.08255382924111179  0.06128175803222793  0.010881914931891631  1.0000
  Cd  Cd1       1.0  0.6179766575108202  0.3421414573500344  0.4205811756599967  1.0000
  Cd  Cd2       1.0  0.40578211858340996  0.6583710125680677  0.580043397136425  1.0000
  Cd  Cd3       1.0  0.5483913834611792  0.2978844913183486  0.07798611299347372  1.0000
  Cd  Cd4       1.0  0.2822871094001174  0.5629942676962566  0.905460353816951  1.0000
  Sb  Sb1       1.0  0.8749856793178045  0.17481578463743247  0.5085945860485758  1.0000
  Sb  Sb2       1.0  0.12383131788637673  0.8504725720272334  0.5067628961715851  1.0000
  Sb  Sb3       1.0  0.8009276303806093  0.12173695437278069  0.009666040785795634  1.0000
  Sb  Sb4       1.0  0.099067431905483  0.7871406552984241  0.9891756154846576  1.0000
  Sb  Sb5       1.0  0.4462068463130209  0.45811846596923733  0.35392191328787925  1.0000
  Sb  Sb6       1.0  0.428232143738163  0.42706683223366726  0.6385284097715436  1.0000
  Sb  Sb7       1.0  0.5353796365348371  0.5063706426432887  0.17637735833136278  1.0000
  Sb  Sb8       1.0  0.5336648777702168  0.5424831627453647  0.8465576761957112  1.0000
  Sb  Sb9       1.0  0.7119127412303338  0.307919485733972  0.2242079025228027  1.0000
  Sb  Sb10      1.0  0.32259748532006605  0.7339016784625527  0.7398315970766325  1.0000
  O   O1        1.0  0.3192505739526736  0.6369633890084933  0.25606599465082946  1.0000
  O   O2        1.0  0.7444219749304438  0.403882196815934  0.7263381060894564  1.0000
data_image2
_chemical_formula_structural       Eu10Cd4Sb10O2
_chemical_formula_sum              "Eu10 Cd4 Sb10 O2"
_cell_length_a       11.24426501306804
_cell_length_b       11.24426501306804
_cell_length_c       14.850709
_cell_angle_alpha    90.0
_cell_angle_beta     90.0
_cell_angle_gamma    155.89846091665316

_space_group_name_H-M_alt    "P 1"
_space_group_IT_number       1

loop_
  _space_group_symop_operation_xyz
  'x, y, z'

loop_
  _atom_site_type_symbol
  _atom_site_label
  _atom_site_symmetry_multiplicity
  _atom_site_fract_x
  _atom_site_fract_y
  _atom_site_fract_z
  _atom_site_occupancy
  Eu  Eu1       1.0  0.630254183505691  0.16393516445009562  0.8809679234991072  1.0000
  Eu  Eu2       1.0  0.3279859483338888  0.8064792985188874  0.14468265537598515  1.0000
  Eu  Eu3       1.0  0.7391284926578274  0.2856773722674466  0.606272174587922  1.0000
  Eu  Eu4       1.0  0.3884410621427798  0.8362765059393048  0.3902843415569671  1.0000
  Eu  Eu5       1.0  0.9091859062076615  0.10864195703371483  0.23860983230492464  1.0000
  Eu  Eu6       1.0  0.14610179636777101  0.9194642871063033  0.7529243011904014  1.0000
  Eu  Eu7       1.0  0.033487581473564884  0.8855636474346887  0.2823006632798565  1.0000
  Eu  Eu8       1.0  0.8947901556665575  0.07696247016763864  0.7713655958875317  1.0000
  Eu  Eu9       1.0  0.9012263198325641  0.9256009447772164  0.4703728422599003  1.0000
  Eu  Eu10      1.0  0.10850356387081418  0.09146509994607119  0.007508455584847069  1.0000
  Cd  Cd1       1.0  0.5840138091869916  0.32858638863628864  0.40479580291129635  1.0000
  Cd  Cd2       1.0  0.5020807920739295  0.7261211277783673  0.5981392476501151  1.0000
  Cd  Cd3       1.0  0.5116741057534699  0.2517608524327392  0.06326603347326941  1.0000
  Cd  Cd4       1.0  0.3780516503518541  0.6368235259215153  0.9091141295730325  1.0000
  Sb  Sb1       1.0  0.9591111936639342  0.26192336174103176  0.5125667744294102  1.0000
  Sb  Sb2       1.0  0.08926397053593436  0.792907709662875  0.5099088027400647  1.0000
  Sb  Sb3       1.0  0.7852690842420786  0.109313771033125  0.01646382747602656  1.0000
  Sb  Sb4       1.0  0.04735247469410999  0.6973970793687545  0.9657616993545555  1.0000
  Sb  Sb5       1.0  0.42438504741041877  0.44209532268780566  0.3480334857645679  1.0000
  Sb  Sb6       1.0  0.4361891731498384  0.4057865539031202  0.6625181073540142  1.0000
  Sb  Sb7       1.0  0.5189788073563969  0.5148629248171434  0.1627088623593842  1.0000
  Sb  Sb8       1.0  0.5575270550877407  0.5688776271126395  0.8515368439718108  1.0000
  Sb  Sb9       1.0  0.8073479996733269  0.44483581979691333  0.2026373008576706  1.0000
  Sb  Sb10      1.0  0.29318263210792705  0.688275037062818  0.7358391028959848  1.0000
  O   O1        1.0  0.4033083885326499  0.7214535164699272  0.24351292486545836  1.0000
  O   O2        1.0  0.6371322692538134  0.27476137498174547  0.7426232907365099  1.0000
data_image3
_chemical_formula_structural       Eu10Cd4Sb10O2
_chemical_formula_sum              "Eu10 Cd4 Sb10 O2"
_cell_length_a       11.24426501306804
_cell_length_b       11.24426501306804
_cell_length_c       14.850709
_cell_angle_alpha    90.0
_cell_angle_beta     90.0
_cell_angle_gamma    155.89846091665316

_space_group_name_H-M_alt    "P 1"
_space_group_IT_number       1

loop_
  _space_group_symop_operation_xyz
  'x, y, z'

loop_
  _atom_site_type_symbol
  _atom_site_label
  _atom_site_symmetry_multiplicity
  _atom_site_fract_x
  _atom_site_fract_y
  _atom_site_fract_z
  _atom_site_occupancy
  Eu  Eu1       1.0  0.621695304793435  0.14110110779176  0.8819733950974662  1.0000
  Eu  Eu2       1.0  0.43001536951690966  0.9187710856225019  0.1373728314814357  1.0000
  Eu  Eu3       1.0  0.6648933062080105  0.23009283171229716  0.6240958352599236  1.0000
  Eu  Eu4       1.0  0.4491549492569337  0.888720242706213  0.37343319714666084  1.0000
  Eu  Eu5       1.0  0.8325145828166226  0.01148354124367819  0.2362534007331538  1.0000
  Eu  Eu6       1.0  0.11939498268760752  0.8641516253932562  0.7488624545201237  1.0000
  Eu  Eu7       1.0  0.020266420726093318  0.8821287657306911  0.2597261826067201  1.0000
  Eu  Eu8       1.0  0.8304032689591654  0.031337120804501586  0.7621206519086156  1.0000
  Eu  Eu9       1.0  0.9271914338029528  0.9128869859198903  0.49614245750619324  1.0000
  Eu  Eu10      1.0  0.046431829999862034  0.061508131048951704  0.022446686229164185  1.0000
  Cd  Cd1       1.0  0.6230559363552577  0.3282178006522585  0.41666419436492175  1.0000
  Cd  Cd2       1.0  0.4713988481861618  0.669162017913561  0.6037696240786847  1.0000
  Cd  Cd3       1.0  0.5141941313751016  0.3085366561152703  0.05395367264750498  1.0000
  Cd  Cd4       1.0  0.44420795089774373  0.7077740094427606  0.9155794324580445  1.0000
  Sb  Sb1       1.0  0.9309811535721607  0.24478288009241034  0.4896277685615282  1.0000
  Sb  Sb2       1.0  0.12178042707195418  0.8074572991104135  0.5058549411178793  1.0000
  Sb  Sb3       1.0  0.9264786352110125  0.2256776151694595  0.051942787482526245  1.0000
  Sb  Sb4       1.0  0.05282150176454528  0.7677035027010682  0.9652016504261383  1.0000
  Sb  Sb5       1.0  0.41996292231635385  0.45732597256801677  0.33388069290494454  1.0000
  Sb  Sb6       1.0  0.42548644173453537  0.3862179985519906  0.6599643988653063  1.0000
  Sb  Sb7       1.0  0.5409278576533563  0.5400492048111838  0.1400781070276887  1.0000
  Sb  Sb8       1.0  0.5994099501967411  0.5801938259136165  0.8571155420295896  1.0000
  Sb  Sb9       1.0  0.7663142019931786  0.42931933837751746  0.22339401561448768  1.0000
  Sb  Sb10      1.0  0.20942324095983833  0.5889583087188127  0.729792867006404  1.0000
  O   O1        1.0  0.5104955886382723  0.8632482449415816  0.24460082173956607  1.0000
  O   O2        1.0  0.7170409791453864  0.3706606428963101  0.7505536910132619  1.0000
data_image4
_chemical_formula_structural       Eu10Cd4Sb10O2
_chemical_formula_sum              "Eu10 Cd4 Sb10 O2"
_cell_length_a       11.24426501306804
_cell_length_b       11.24426501306804
_cell_length_c       14.850709
_cell_angle_alpha    90.0
_cell_angle_beta     90.0
_cell_angle_gamma    155.89846091665316

_space_group_name_H-M_alt    "P 1"
_space_group_IT_number       1

loop_
  _space_group_symop_operation_xyz
  'x, y, z'

loop_
  _atom_site_type_symbol
  _atom_site_label
  _atom_site_symmetry_multiplicity
  _atom_site_fract_x
  _atom_site_fract_y
  _atom_site_fract_z
  _atom_site_occupancy
  Eu  Eu1       1.0  0.6748565938152931  0.194007335102107  0.8779840668051685  1.0000
  Eu  Eu2       1.0  0.3716619152003865  0.8635980860960972  0.1074135967011595  1.0000
  Eu  Eu3       1.0  0.7078057934597644  0.22225198342308664  0.6076465891036259  1.0000
  Eu  Eu4       1.0  0.44746960066449953  0.8987338087566773  0.35146826240216666  1.0000
  Eu  Eu5       1.0  0.8477063432139861  0.03608761102905673  0.2439936356451978  1.0000
  Eu  Eu6       1.0  0.1394528499615645  0.8632150937284337  0.7683424591385302  1.0000
  Eu  Eu7       1.0  0.014232118550303187  0.8706983435364632  0.2526687661345162  1.0000
  Eu  Eu8       1.0  0.7744900575893212  0.9443470581877834  0.7722356623694504  1.0000
  Eu  Eu9       1.0  0.9508813998377983  0.9284912516107979  0.5179895763446402  1.0000
  Eu  Eu10      1.0  0.045228979694761806  0.07788907026786103  0.0018976466656747538  1.0000
  Cd  Cd1       1.0  0.6415674725164768  0.3514567445770657  0.41857219353329744  1.0000
  Cd  Cd2       1.0  0.5681189956569185  0.7538385159994906  0.5802780596413951  1.0000
  Cd  Cd3       1.0  0.5285264526873291  0.3309346376259334  0.05848750896902269  1.0000
  Cd  Cd4       1.0  0.2582931584071816  0.5862538897137085  0.9109753117946335  1.0000
  Sb  Sb1       1.0  0.9193879957396129  0.20910369057306688  0.48723396270326297  1.0000
  Sb  Sb2       1.0  0.18493931750831272  0.8828759326657508  0.5207986711123394  1.0000
  Sb  Sb3       1.0  0.03752387127877932  0.3291683178609733  0.06786008842357931  1.0000
  Sb  Sb4       1.0  0.01599723747002961  0.7400389598002497  0.9618223179927742  1.0000
  Sb  Sb5       1.0  0.3844138669648328  0.4471518182868476  0.3424277638656743  1.0000
  Sb  Sb6       1.0  0.4492762878914234  0.42920076176958893  0.6633364156986503  1.0000
  Sb  Sb7       1.0  0.517021827981761  0.5302543019381454  0.14507129406450844  1.0000
  Sb  Sb8       1.0  0.5980616520595773  0.5587001383874629  0.8507596509785718  1.0000
  Sb  Sb9       1.0  0.6914995335585746  0.3325751725443499  0.254324084776629  1.0000
  Sb  Sb10      1.0  0.21956882866443597  0.6280252027986349  0.7375480700041748  1.0000
  O   O1        1.0  0.5628329287691664  0.9251552860464981  0.2170139986959592  1.0000
  O   O2        1.0  0.5538187622098466  0.1857064341669157  0.7449680776706634  1.0000
data_image5
_chemical_formula_structural       Eu10Cd4Sb10O2
_chemical_formula_sum              "Eu10 Cd4 Sb10 O2"
_cell_length_a       11.24426501306804
_cell_length_b       11.24426501306804
_cell_length_c       14.850709
_cell_angle_alpha    90.0
_cell_angle_beta     90.0
_cell_angle_gamma    155.89846091665316

_space_group_name_H-M_alt    "P 1"
_space_group_IT_number       1

loop_
  _space_group_symop_operation_xyz
  'x, y, z'

loop_
  _atom_site_type_symbol
  _atom_site_label
  _atom_site_symmetry_multiplicity
  _atom_site_fract_x
  _atom_site_fract_y
  _atom_site_fract_z
  _atom_site_occupancy
  Eu  Eu1       1.0  0.683034067014931  0.1974425167110623  0.8737789770574187  1.0000
  Eu  Eu2       1.0  0.3098406417802596  0.8190055502611162  0.09992660101846566  1.0000
  Eu  Eu3       1.0  0.7447360764456938  0.2600126935613607  0.5961909876965036  1.0000
  Eu  Eu4       1.0  0.3493052752044923  0.8145744134292925  0.35057087308251705  1.0000
  Eu  Eu5       1.0  0.8845925910750295  0.08228888404180802  0.24913710760599334  1.0000
  Eu  Eu6       1.0  0.14826851985090056  0.8569266663473738  0.7297891830356961  1.0000
  Eu  Eu7       1.0  0.08408429722980842  0.9147350961156031  0.2829555527233095  1.0000
  Eu  Eu8       1.0  0.8189058298761867  0.9846188989706115  0.7558742706835867  1.0000
  Eu  Eu9       1.0  0.9313166667919489  0.9324695893591639  0.4919318217092468  1.0000
  Eu  Eu10      1.0  0.07106827143397568  0.1025919882091514  0.9973564157161631  1.0000
  Cd  Cd1       1.0  0.6052715445785901  0.33872364095730423  0.4316503016173537  1.0000
  Cd  Cd2       1.0  0.46316846134976186  0.7167259487856122  0.5813234087486059  1.0000
  Cd  Cd3       1.0  0.5051148075429606  0.29198460166064166  0.04482657436305085  1.0000
  Cd  Cd4       1.0  0.23218268744937623  0.5360150467510786  0.9285932794832011  1.0000
  Sb  Sb1       1.0  0.07894544093284828  0.37045708993753446  0.4704709334420462  1.0000
  Sb  Sb2       1.0  0.12315776640390588  0.8483354901694085  0.5511173179030466  1.0000
  Sb  Sb3       1.0  0.10456671181865973  0.4008583935986136  0.09610064504404361  1.0000
  Sb  Sb4       1.0  0.0694609590372683  0.752205315982132  0.9733094872118673  1.0000
  Sb  Sb5       1.0  0.3099748218068378  0.356274769882348  0.3821950339148396  1.0000
  Sb  Sb6       1.0  0.4396703846694354  0.4415632043330227  0.6525488873084301  1.0000
  Sb  Sb7       1.0  0.466004757479546  0.46769620699234293  0.16085130331601116  1.0000
  Sb  Sb8       1.0  0.5216377003902535  0.44086676532335384  0.8506914858251411  1.0000
  Sb  Sb9       1.0  0.6600236297921789  0.30681030818754945  0.23399715008502486  1.0000
  Sb  Sb10      1.0  0.3353408455643882  0.7277777562403145  0.7365265676592084  1.0000
  O   O1        1.0  0.5204101129193262  0.8816053951413833  0.22428921324524723  1.0000
  O   O2        1.0  0.7262232645514696  0.36438946788297094  0.7301725619729792  1.0000
data_image6
_chemical_formula_structural       Eu10Cd4Sb10O2
_chemical_formula_sum              "Eu10 Cd4 Sb10 O2"
_cell_length_a       11.24426501306804
_cell_length_b       11.24426501306804
_cell_length_c       14.850709
_cell_angle_alpha    90.0
_cell_angle_beta     90.0
_cell_angle_gamma    155.89846091665316

_space_group_name_H-M_alt    "P 1"
_space_group_IT_number       1

loop_
  _space_group_symop_operation_xyz
  'x, y, z'

loop_
  _atom_site_type_symbol
  _atom_site_label
  _atom_site_symmetry_multiplicity
  _atom_site_fract_x
  _atom_site_fract_y
  _atom_site_fract_z
  _atom_site_occupancy
  Eu  Eu1       1.0  0.7413025794229542  0.23474145943145536  0.8610450292012155  1.0000
  Eu  Eu2       1.0  0.3069745679573495  0.805385578747095  0.10574532302168126  1.0000
  Eu  Eu3       1.0  0.7788713342030118  0.30612484454317007  0.5993500950465236  1.0000
  Eu  Eu4       1.0  0.31340893768254124  0.813861491677561  0.3574435129558715  1.0000
  Eu  Eu5       1.0  0.8336436176613681  0.004610374205995911  0.2532412150164427  1.0000
  Eu  Eu6       1.0  0.14066712179554783  0.8331642302056818  0.7568618584446529  1.0000
  Eu  Eu7       1.0  0.04116133671208294  0.8649649380444268  0.3247697146480696  1.0000
  Eu  Eu8       1.0  0.8991648887941263  0.07271036761209063  0.7590461612571351  1.0000
  Eu  Eu9       1.0  0.8503732115007849  0.8883091748647244  0.5048328565589745  1.0000
  Eu  Eu10      1.0  0.9864642489197392  0.028666766687951963  0.012748364512615734  1.0000
  Cd  Cd1       1.0  0.6135171595890484  0.35353941154431334  0.4273269933903725  1.0000
  Cd  Cd2       1.0  0.5135366457496058  0.786706613441716  0.5708113039035088  1.0000
  Cd  Cd3       1.0  0.5267563340760174  0.3383393049058067  0.038924981026342176  1.0000
  Cd  Cd4       1.0  0.3285499137461557  0.5811407944007451  0.9057622257343177  1.0000
  Sb  Sb1       1.0  0.025605135739254603  0.32313092732140086  0.4509808517933933  1.0000
  Sb  Sb2       1.0  0.07273060571575647  0.7774328099451476  0.5193092266792312  1.0000
  Sb  Sb3       1.0  0.09623696322733832  0.35516565358152047  0.08614258111924958  1.0000
  Sb  Sb4       1.0  0.07294239782017967  0.7890521065625339  0.9321858067915845  1.0000
  Sb  Sb5       1.0  0.40553157110701116  0.43384101300098116  0.3842997601923271  1.0000
  Sb  Sb6       1.0  0.42015216872348327  0.4450488385750247  0.6645318860082834  1.0000
  Sb  Sb7       1.0  0.5148704596678187  0.5132886263479478  0.1529669652986444  1.0000
  Sb  Sb8       1.0  0.5056226768776981  0.42494623127314224  0.8602043249211573  1.0000
  Sb  Sb9       1.0  0.7235652060035513  0.3560914311468527  0.21866025263025363  1.0000
  Sb  Sb10      1.0  0.27324616903282734  0.6722250648293275  0.7399893830496658  1.0000
  O   O1        1.0  0.5856769174530055  0.9601051384529964  0.2528906585857508  1.0000
  O   O2        1.0  0.6613230758386629  0.2940281943509859  0.7331730985438867  1.0000
data_image7
_chemical_formula_structural       Eu10Cd4Sb10O2
_chemical_formula_sum              "Eu10 Cd4 Sb10 O2"
_cell_length_a       11.24426501306804
_cell_length_b       11.24426501306804
_cell_length_c       14.850709
_cell_angle_alpha    90.0
_cell_angle_beta     90.0
_cell_angle_gamma    155.89846091665316

_space_group_name_H-M_alt    "P 1"
_space_group_IT_number       1

loop_
  _space_group_symop_operation_xyz
  'x, y, z'

loop_
  _atom_site_type_symbol
  _atom_site_label
  _atom_site_symmetry_multiplicity
  _atom_site_fract_x
  _atom_site_fract_y
  _atom_site_fract_z
  _atom_site_occupancy
  Eu  Eu1       1.0  0.8203574618065591  0.32193506915782183  0.8850390772199012  1.0000
  Eu  Eu2       1.0  0.2782664675915013  0.7476519750931702  0.12438567942496968  1.0000
  Eu  Eu3       1.0  0.6269307675438972  0.12865109924320556  0.6138301064406143  1.0000
  Eu  Eu4       1.0  0.3893278873760452  0.8484814434306094  0.37182460663781397  1.0000
  Eu  Eu5       1.0  0.8174953724908296  0.006845592080134726  0.26841105907373564  1.0000
  Eu  Eu6       1.0  0.16080708504781913  0.8570932694565967  0.7220525970015869  1.0000
  Eu  Eu7       1.0  0.10336023659784369  0.9297112821196145  0.30656222118774606  1.0000
  Eu  Eu8       1.0  0.8505948438472237  0.04869350442352935  0.7491989301423219  1.0000
  Eu  Eu9       1.0  0.8848878085703201  0.9028070561980199  0.5159137516742411  1.0000
  Eu  Eu10      1.0  0.023720171464705075  0.04287727953115716  0.9946593520308079  1.0000
  Cd  Cd1       1.0  0.6000935411998658  0.34208913661010815  0.4148447627461613  1.0000
  Cd  Cd2       1.0  0.44807838842088554  0.7036709141468999  0.5762171193160229  1.0000
  Cd  Cd3       1.0  0.663157263684585  0.467769069164293  0.05661245179339781  1.0000
  Cd  Cd4       1.0  0.43289876305676417  0.6436304264771888  0.898668464021748  1.0000
  Sb  Sb1       1.0  0.8956010501427734  0.21622291211143216  0.49371174841485016  1.0000
  Sb  Sb2       1.0  0.1165515464404681  0.8146407439086543  0.5040695154945386  1.0000
  Sb  Sb3       1.0  0.057076511242244665  0.32751329525722267  0.03400603278233232  1.0000
  Sb  Sb4       1.0  0.09321534654238314  0.8432408395490661  0.9518110630670216  1.0000
  Sb  Sb5       1.0  0.4286639997963398  0.4513406832584425  0.3406903647275094  1.0000
  Sb  Sb6       1.0  0.3058730595694707  0.3509026681986499  0.6480051441507902  1.0000
  Sb  Sb7       1.0  0.5371237945257407  0.5581937880645802  0.16761051957140766  1.0000
  Sb  Sb8       1.0  0.40019958506679343  0.3737515015903089  0.8668371115088694  1.0000
  Sb  Sb9       1.0  0.7358045090562042  0.3923292493151805  0.2285946775281468  1.0000
  Sb  Sb10      1.0  0.3357298104959288  0.7229999959907132  0.7491753167446598  1.0000
  O   O1        1.0  0.4194225869818981  0.7757018798341412  0.2542792593381864  1.0000
  O   O2        1.0  0.6483450602057687  0.2619640509757619  0.7343247839299277  1.0000
data_image8
_chemical_formula_structural       Eu10Cd4Sb10O2
_chemical_formula_sum              "Eu10 Cd4 Sb10 O2"
_cell_length_a       11.24426501306804
_cell_length_b       11.24426501306804
_cell_length_c       14.850709
_cell_angle_alpha    90.0
_cell_angle_beta     90.0
_cell_angle_gamma    155.89846091665316

_space_group_name_H-M_alt    "P 1"
_space_group_IT_number       1

loop_
  _space_group_symop_operation_xyz
  'x, y, z'

loop_
  _atom_site_type_symbol
  _atom_site_label
  _atom_site_symmetry_multiplicity
  _atom_site_fract_x
  _atom_site_fract_y
  _atom_site_fract_z
  _atom_site_occupancy
  Eu  Eu1       1.0  0.7463587540965086  0.2976525521765818  0.894718730170177  1.0000
  Eu  Eu2       1.0  0.2617045370854556  0.6981655960659185  0.1491579504698034  1.0000
  Eu  Eu3       1.0  0.5776513708441688  0.11345435078683601  0.6173712914294736  1.0000
  Eu  Eu4       1.0  0.3837796358585818  0.8328378423596218  0.37482119298229316  1.0000
  Eu  Eu5       1.0  0.9371797544523792  0.12423010071992852  0.3232802957017605  1.0000
  Eu  Eu6       1.0  0.14326755078148062  0.8661659478419561  0.6990136096678004  1.0000
  Eu  Eu7       1.0  0.18152671963647657  0.99616012581464  0.24652321473046293  1.0000
  Eu  Eu8       1.0  0.8216663900139956  0.0030066964438906453  0.7743075734748545  1.0000
  Eu  Eu9       1.0  0.8617750606878753  0.8531331701677575  0.4823519474637692  1.0000
  Eu  Eu10      1.0  0.011707533675112868  0.03740018626380085  0.03681854515790214  1.0000
  Cd  Cd1       1.0  0.7004054244751582  0.4332407867812198  0.4042286418341268  1.0000
  Cd  Cd2       1.0  0.40834502978058074  0.6743117817755329  0.5720644114440138  1.0000
  Cd  Cd3       1.0  0.6384518359942981  0.4154733879222067  0.0740053753922582  1.0000
  Cd  Cd4       1.0  0.43480369704952354  0.6645414609807687  0.9236069473485526  1.0000
  Sb  Sb1       1.0  0.886955533295713  0.21264704511082103  0.5014397173438584  1.0000
  Sb  Sb2       1.0  0.19914448544024654  0.8956208756627515  0.49967589043717864  1.0000
  Sb  Sb3       1.0  0.8835673173041693  0.19333373643470808  0.9872780247650753  1.0000
  Sb  Sb4       1.0  0.14946822134034426  0.8675538361500743  0.9587724719384961  1.0000
  Sb  Sb5       1.0  0.45702028254317734  0.44731561838609707  0.35181674363190374  1.0000
  Sb  Sb6       1.0  0.3120975115916256  0.3618245049503314  0.6495322233914286  1.0000
  Sb  Sb7       1.0  0.5764441443858225  0.593288430951936  0.15610251323343616  1.0000
  Sb  Sb8       1.0  0.5361609242753551  0.5264153368775603  0.8258387802431341  1.0000
  Sb  Sb9       1.0  0.7069058019944501  0.3230995894544246  0.2177838875725908  1.0000
  Sb  Sb10      1.0  0.2271046187229629  0.6398422998271761  0.7519805665531075  1.0000
  O   O1        1.0  0.1975726318465446  0.54849056380528  0.2703926485272905  1.0000
  O   O2        1.0  0.6363358639897233  0.29786280161870327  0.7188216012672822  1.0000
data_image9
_chemical_formula_structural       Eu10Cd4Sb10O2
_chemical_formula_sum              "Eu10 Cd4 Sb10 O2"
_cell_length_a       11.24426501306804
_cell_length_b       11.24426501306804
_cell_length_c       14.850709
_cell_angle_alpha    90.0
_cell_angle_beta     90.0
_cell_angle_gamma    155.89846091665316

_space_group_name_H-M_alt    "P 1"
_space_group_IT_number       1

loop_
  _space_group_symop_operation_xyz
  'x, y, z'

loop_
  _atom_site_type_symbol
  _atom_site_label
  _atom_site_symmetry_multiplicity
  _atom_site_fract_x
  _atom_site_fract_y
  _atom_site_fract_z
  _atom_site_occupancy
  Eu  Eu1       1.0  0.7000123929322092  0.2783696305596008  0.8819415946374486  1.0000
  Eu  Eu2       1.0  0.28825370967591796  0.6723349370768031  0.13352386364887187  1.0000
  Eu  Eu3       1.0  0.7109161794281273  0.24165787534180821  0.6218154861500724  1.0000
  Eu  Eu4       1.0  0.2929355280445943  0.7674215949811019  0.3629676743757643  1.0000
  Eu  Eu5       1.0  0.9255900545292604  0.13421994497470205  0.3021478273841154  1.0000
  Eu  Eu6       1.0  0.01786692790656353  0.805704074121499  0.7101724755391127  1.0000
  Eu  Eu7       1.0  0.1604814600581745  0.005566489336324754  0.21512826226405266  1.0000
  Eu  Eu8       1.0  0.8383213663294481  0.027499433776971047  0.7791702883622578  1.0000
  Eu  Eu9       1.0  0.8570622837558621  0.8725110300386549  0.5027792498232263  1.0000
  Eu  Eu10      1.0  0.1134234726322843  0.12450650030551186  0.023286567017510862  1.0000
  Cd  Cd1       1.0  0.7048336231124495  0.4266614409621749  0.39126743466564395  1.0000
  Cd  Cd2       1.0  0.371693582192747  0.6333206578418695  0.6013055651620778  1.0000
  Cd  Cd3       1.0  0.641113959205411  0.4013488000863488  0.06127023260764058  1.0000
  Cd  Cd4       1.0  0.3524691832576034  0.6096592269688637  0.9404576837309294  1.0000
  Sb  Sb1       1.0  0.8136357522253927  0.16258310609329374  0.4880127890239485  1.0000
  Sb  Sb2       1.0  0.2620194104690365  0.9654959502024382  0.4932618116843995  1.0000
  Sb  Sb3       1.0  0.7832142742160146  0.12473080648136745  0.9946089756512853  1.0000
  Sb  Sb4       1.0  0.14790819981015887  0.8423592210584688  0.9981293869697129  1.0000
  Sb  Sb5       1.0  0.5129489302315389  0.4830547673317973  0.34205816295771047  1.0000
  Sb  Sb6       1.0  0.39109720856443125  0.4167816016729211  0.6398357130012929  1.0000
  Sb  Sb7       1.0  0.5914021482448314  0.618960907594303  0.174357408427692  1.0000
  Sb  Sb8       1.0  0.5725655814382681  0.49153081330273024  0.8307622723336096  1.0000
  Sb  Sb9       1.0  0.7557594317541177  0.29745447428125243  0.23019826789694692  1.0000
  Sb  Sb10      1.0  0.21093872488924434  0.6173664673838964  0.7710715946794612  1.0000
  O   O1        1.0  0.4854917133842616  0.7702713102272122  0.26222215013639644  1.0000
  O   O2        1.0  0.5332930778192728  0.1967217053141035  0.7300891946328478  1.0000
data_image10
_chemical_formula_structural       Eu10Cd4Sb10O2
_chemical_formula_sum              "Eu10 Cd4 Sb10 O2"
_cell_length_a       11.24426501306804
_cell_length_b       11.24426501306804
_cell_length_c       14.850709
_cell_angle_alpha    90.0
_cell_angle_beta     90.0
_cell_angle_gamma    155.89846091665316

_space_group_name_H-M_alt    "P 1"
_space_group_IT_number       1

loop_
  _space_group_symop_operation_xyz
  'x, y, z'

loop_
  _atom_site_type_symbol
  _atom_site_label
  _atom_site_symmetry_multiplicity
  _atom_site_fract_x
  _atom_site_fract_y
  _atom_site_fract_z
  _atom_site_occupancy
  Eu  Eu1       1.0  0.5562895922302817  0.14037916902936937  0.8361939068834475  1.0000
  Eu  Eu2       1.0  0.3327426398019393  0.6739667891272976  0.12149109433005946  1.0000
  Eu  Eu3       1.0  0.797200727982218  0.347449794082162  0.6116175938535827  1.0000
  Eu  Eu4       1.0  0.2684475893590005  0.7277027623507677  0.36963368169619243  1.0000
  Eu  Eu5       1.0  0.9562950122521673  0.17812033520385456  0.2765270657718114  1.0000
  Eu  Eu6       1.0  0.9791356707757333  0.811710158494659  0.7229164656079764  1.0000
  Eu  Eu7       1.0  0.2621681860150537  0.10036808915250495  0.21437574272053597  1.0000
  Eu  Eu8       1.0  0.8197320306262048  0.019993627914606668  0.7650510824934129  1.0000
  Eu  Eu9       1.0  0.936194475171524  0.9692349312398678  0.5189188931361277  1.0000
  Eu  Eu10      1.0  0.10168881399545271  0.10596223441140348  0.9904960831225582  1.0000
  Cd  Cd1       1.0  0.7625668966357017  0.4648157110955668  0.3824668454494698  1.0000
  Cd  Cd2       1.0  0.3254249036450451  0.6089020201010014  0.6034619724164334  1.0000
  Cd  Cd3       1.0  0.6590066951426777  0.4242656754254352  0.07414640795981432  1.0000
  Cd  Cd4       1.0  0.3258638972015603  0.5605475298958793  0.9228891145751156  1.0000
  Sb  Sb1       1.0  0.7492405932275769  0.07414471703422439  0.5021198260819892  1.0000
  Sb  Sb2       1.0  0.21555977468749127  0.8932106254344185  0.49702397298285017  1.0000
  Sb  Sb3       1.0  0.7910466408246487  0.1854571071050991  0.9920921432787893  1.0000
  Sb  Sb4       1.0  0.18419952566878803  0.8446844425162453  0.03547722253961383  1.0000
  Sb  Sb5       1.0  0.5430820148378481  0.5232753238495733  0.3703465857624126  1.0000
  Sb  Sb6       1.0  0.39137506906422886  0.40881042827727804  0.7044219790954236  1.0000
  Sb  Sb7       1.0  0.6280122445932204  0.6675642149094108  0.14008209909519176  1.0000
  Sb  Sb8       1.0  0.45709527744637174  0.33669015070000247  0.8637499268205403  1.0000
  Sb  Sb9       1.0  0.7874742461654579  0.3247761280772044  0.2417891002244526  1.0000
  Sb  Sb10      1.0  0.17062089663629704  0.6028848050142441  0.7610574468825329  1.0000
  O   O1        1.0  0.4468864866956792  0.736573651455761  0.26012229945159043  1.0000
  O   O2        1.0  0.49124650967131045  0.15452291663695072  0.6974833439280782  1.0000
data_image11
_chemical_formula_structural       Eu10Cd4Sb10O2
_chemical_formula_sum              "Eu10 Cd4 Sb10 O2"
_cell_length_a       11.24426501306804
_cell_length_b       11.24426501306804
_cell_length_c       14.850709
_cell_angle_alpha    90.0
_cell_angle_beta     90.0
_cell_angle_gamma    155.89846091665316

_space_group_name_H-M_alt    "P 1"
_space_group_IT_number       1

loop_
  _space_group_symop_operation_xyz
  'x, y, z'

loop_
  _atom_site_type_symbol
  _atom_site_label
  _atom_site_symmetry_multiplicity
  _atom_site_fract_x
  _atom_site_fract_y
  _atom_site_fract_z
  _atom_site_occupancy
  Eu  Eu1       1.0  0.48324932298786116  0.08772814853146722  0.8273486855002703  1.0000
  Eu  Eu2       1.0  0.32426376373035776  0.6628201104159798  0.11427203338650879  1.0000
  Eu  Eu3       1.0  0.7469979825331813  0.30778850239417305  0.5945196182868311  1.0000
  Eu  Eu4       1.0  0.38029574845503933  0.8211672043158497  0.36149341974594745  1.0000
  Eu  Eu5       1.0  0.980337607396622  0.16970268668343796  0.2850020158224077  1.0000
  Eu  Eu6       1.0  0.014759570056027864  0.8246310569235007  0.7396632486564968  1.0000
  Eu  Eu7       1.0  0.24047230514908585  0.11098711137858253  0.25934610165465327  1.0000
  Eu  Eu8       1.0  0.791109416964401  0.004480075814873502  0.7528808255128638  1.0000
  Eu  Eu9       1.0  0.08345313836344576  0.08194220043275613  0.5162806034227422  1.0000
  Eu  Eu10      1.0  0.022096178766608625  0.02916235692036468  0.9929915395079493  1.0000
  Cd  Cd1       1.0  0.6702015670069918  0.38885397011919737  0.37924880846517817  1.0000
  Cd  Cd2       1.0  0.26730320520276296  0.5620781441237586  0.6108603403840169  1.0000
  Cd  Cd3       1.0  0.685245831334028  0.4650392223244884  0.07604182344088936  1.0000
  Cd  Cd4       1.0  0.29991524222773636  0.5465235976445463  0.8899637363329345  1.0000
  Sb  Sb1       1.0  0.7913370075347339  0.0788287385720787  0.5040394981284716  1.0000
  Sb  Sb2       1.0  0.15405999835790796  0.885872970440294  0.5109568106734798  1.0000
  Sb  Sb3       1.0  0.7600927361940648  0.16351659835437538  0.9671047550769223  1.0000
  Sb  Sb4       1.0  0.21519474598610486  0.8384063307321696  0.04507057792572455  1.0000
  Sb  Sb5       1.0  0.577130859204148  0.5820589477244487  0.38641827098945714  1.0000
  Sb  Sb6       1.0  0.46295605516064253  0.5021905434937532  0.6913306982664822  1.0000
  Sb  Sb7       1.0  0.5954246946210506  0.6320860784449266  0.14363591840385842  1.0000
  Sb  Sb8       1.0  0.5394710559052733  0.41981219440698914  0.8748509801531482  1.0000
  Sb  Sb9       1.0  0.7294838001022724  0.261612006264634  0.2301689916639317  1.0000
  Sb  Sb10      1.0  0.1421612111524172  0.5416437202385121  0.7592466478267492  1.0000
  O   O1        1.0  0.42580111667812626  0.6770288964899686  0.2613827428230678  1.0000
  O   O2        1.0  0.6474099261105193  0.314046590857759  0.7034590375733704  1.0000
data_image12
_chemical_formula_structural       Eu10Cd4Sb10O2
_chemical_formula_sum              "Eu10 Cd4 Sb10 O2"
_cell_length_a       11.24426501306804
_cell_length_b       11.24426501306804
_cell_length_c       14.850709
_cell_angle_alpha    90.0
_cell_angle_beta     90.0
_cell_angle_gamma    155.89846091665316

_space_group_name_H-M_alt    "P 1"
_space_group_IT_number       1

loop_
  _space_group_symop_operation_xyz
  'x, y, z'

loop_
  _atom_site_type_symbol
  _atom_site_label
  _atom_site_symmetry_multiplicity
  _atom_site_fract_x
  _atom_site_fract_y
  _atom_site_fract_z
  _atom_site_occupancy
  Eu  Eu1       1.0  0.5174089640516285  0.14050445970083478  0.8635651246688155  1.0000
  Eu  Eu2       1.0  0.317101118832406  0.6503558295659678  0.10083202416726576  1.0000
  Eu  Eu3       1.0  0.7281109264795123  0.27377258281460115  0.5904837542666141  1.0000
  Eu  Eu4       1.0  0.31516165515566336  0.740172401293548  0.38076587018252905  1.0000
  Eu  Eu5       1.0  0.09296321194198987  0.26375701236405613  0.28593867178911625  1.0000
  Eu  Eu6       1.0  0.056087092966478916  0.8713623820521976  0.736715111454307  1.0000
  Eu  Eu7       1.0  0.12988517437977254  0.019106282849223666  0.24834105497482536  1.0000
  Eu  Eu8       1.0  0.7926412973222856  0.012892681034633157  0.7280003121149989  1.0000
  Eu  Eu9       1.0  0.12670931027975546  0.14706011887616746  0.5145937145670281  1.0000
  Eu  Eu10      1.0  0.022919858990353818  0.011309366868289936  0.013890820174868507  1.0000
  Cd  Cd1       1.0  0.6108115599952413  0.33485615684948683  0.39331195143805747  1.0000
  Cd  Cd2       1.0  0.32113393018182085  0.6008136860811254  0.5820814469258808  1.0000
  Cd  Cd3       1.0  0.7308923584189542  0.4964543638189253  0.08397677062306112  1.0000
  Cd  Cd4       1.0  0.2714262688902997  0.5099396887489952  0.9046675883900822  1.0000
  Sb  Sb1       1.0  0.7967961348687249  0.07302880847751268  0.4738487489842341  1.0000
  Sb  Sb2       1.0  0.12306658322221517  0.8399413365535271  0.5246992092398609  1.0000
  Sb  Sb3       1.0  0.7604253765110768  0.13743267828349276  0.9616724831262806  1.0000
  Sb  Sb4       1.0  0.2330411372629549  0.8448001319122136  0.08658756761083408  1.0000
  Sb  Sb5       1.0  0.6474746217369188  0.6802459798992657  0.3662858317275553  1.0000
  Sb  Sb6       1.0  0.44894950080152984  0.4443372838737285  0.6567966824915236  1.0000
  Sb  Sb7       1.0  0.45303181113749763  0.49063359017424607  0.1517487016020569  1.0000
  Sb  Sb8       1.0  0.5970485588484608  0.5068758925898248  0.8890008203867902  1.0000
  Sb  Sb9       1.0  0.7497929618333099  0.2831331840165566  0.1996865706235629  1.0000
  Sb  Sb10      1.0  0.1188932435459373  0.5952005235300404  0.7676301114257392  1.0000
  O   O1        1.0  0.38312751324954625  0.6764117994543045  0.2783807382359609  1.0000
  O   O2        1.0  0.5821675470922651  0.24173952269081042  0.7190625318056691  1.0000
data_image13
_chemical_formula_structural       Eu10Cd4Sb10O2
_chemical_formula_sum              "Eu10 Cd4 Sb10 O2"
_cell_length_a       11.24426501306804
_cell_length_b       11.24426501306804
_cell_length_c       14.850709
_cell_angle_alpha    90.0
_cell_angle_beta     90.0
_cell_angle_gamma    155.89846091665316

_space_group_name_H-M_alt    "P 1"
_space_group_IT_number       1

loop_
  _space_group_symop_operation_xyz
  'x, y, z'

loop_
  _atom_site_type_symbol
  _atom_site_label
  _atom_site_symmetry_multiplicity
  _atom_site_fract_x
  _atom_site_fract_y
  _atom_site_fract_z
  _atom_site_occupancy
  Eu  Eu1       1.0  0.526315831517346  0.16034553964109108  0.8923127416487974  1.0000
  Eu  Eu2       1.0  0.3643612623846578  0.7068890042656806  0.10284900596911398  1.0000
  Eu  Eu3       1.0  0.7411036118016584  0.26636778005717515  0.6086669747160125  1.0000
  Eu  Eu4       1.0  0.2697949953119562  0.715484338183228  0.3852832971150117  1.0000
  Eu  Eu5       1.0  0.04327702839393588  0.25991739168582556  0.28963254435369923  1.0000
  Eu  Eu6       1.0  0.04204212084593929  0.8665240829819054  0.7284147091318978  1.0000
  Eu  Eu7       1.0  0.09181039542085245  0.9586276166724625  0.23969475685792546  1.0000
  Eu  Eu8       1.0  0.8472429625975653  0.060369586150001424  0.7228603367804092  1.0000
  Eu  Eu9       1.0  0.11573862015505175  0.10355783140181439  0.47771709282166336  1.0000
  Eu  Eu10      1.0  0.9785471624310228  0.9937227351359542  0.002234883396702865  1.0000
  Cd  Cd1       1.0  0.5090821116622204  0.2676457493014234  0.40869377873916507  1.0000
  Cd  Cd2       1.0  0.37445007940415265  0.6670263851872552  0.5773318031687387  1.0000
  Cd  Cd3       1.0  0.6185095064462094  0.4054060082138278  0.09525590880190084  1.0000
  Cd  Cd4       1.0  0.33405659615361283  0.5504762809210141  0.920716361421377  1.0000
  Sb  Sb1       1.0  0.8523131396508783  0.10238745623343706  0.48701958627085734  1.0000
  Sb  Sb2       1.0  0.08115843594482511  0.7722949459844867  0.512042365800387  1.0000
  Sb  Sb3       1.0  0.7862696449095488  0.1385843116101709  0.9628381944861751  1.0000
  Sb  Sb4       1.0  0.28099875505871663  0.9201287419919738  0.10067799700969848  1.0000
  Sb  Sb5       1.0  0.5770948594513629  0.5471511956661116  0.3476951211814677  1.0000
  Sb  Sb6       1.0  0.4729311292837681  0.46924814650522917  0.6674715099083154  1.0000
  Sb  Sb7       1.0  0.48430744142701854  0.5331558851791601  0.13496262251608623  1.0000
  Sb  Sb8       1.0  0.59504815008493  0.498257243908151  0.885349311829521  1.0000
  Sb  Sb9       1.0  0.7576920850176636  0.2896690270287557  0.215951551681913  1.0000
  Sb  Sb10      1.0  0.22561991675860796  0.7158891281758432  0.7450483781712655  1.0000
  O   O1        1.0  0.392525972365145  0.7292955260765669  0.25240910850470777  1.0000
  O   O2        1.0  0.602402037320327  0.22552921301170697  0.7440538533526865  1.0000
data_image14
_chemical_formula_structural       Eu10Cd4Sb10O2
_chemical_formula_sum              "Eu10 Cd4 Sb10 O2"
_cell_length_a       11.24426501306804
_cell_length_b       11.24426501306804
_cell_length_c       14.850709
_cell_angle_alpha    90.0
_cell_angle_beta     90.0
_cell_angle_gamma    155.89846091665316

_space_group_name_H-M_alt    "P 1"
_space_group_IT_number       1

loop_
  _space_group_symop_operation_xyz
  'x, y, z'

loop_
  _atom_site_type_symbol
  _atom_site_label
  _atom_site_symmetry_multiplicity
  _atom_site_fract_x
  _atom_site_fract_y
  _atom_site_fract_z
  _atom_site_occupancy
  Eu  Eu1       1.0  0.5600298931831599  0.14735964386894318  0.882197905991312  1.0000
  Eu  Eu2       1.0  0.36067332968919996  0.7182436039469012  0.13843268340857595  1.0000
  Eu  Eu3       1.0  0.7017893655437852  0.23895089279574136  0.6317590892976997  1.0000
  Eu  Eu4       1.0  0.20228253672567753  0.6886644728419031  0.37508559103746986  1.0000
  Eu  Eu5       1.0  0.9140452902301515  0.11114610639472516  0.26796524091435164  1.0000
  Eu  Eu6       1.0  0.12847385354214585  0.9382078446308824  0.7188744015287167  1.0000
  Eu  Eu7       1.0  0.10472190448216834  0.9615688371241019  0.23556091331797016  1.0000
  Eu  Eu8       1.0  0.8984586818001133  0.08970098519991516  0.7343102144517647  1.0000
  Eu  Eu9       1.0  0.06256260763915271  0.016385671020924104  0.4593871102531792  1.0000
  Eu  Eu10      1.0  0.995007855370166  0.04059735489991373  0.9857574441567712  1.0000
  Cd  Cd1       1.0  0.6154320971790719  0.34171490776722485  0.40571139766484837  1.0000
  Cd  Cd2       1.0  0.35337220028090244  0.6635261822728131  0.6008949575858714  1.0000
  Cd  Cd3       1.0  0.5813597002283365  0.432298902208524  0.050185092172390415  1.0000
  Cd  Cd4       1.0  0.4262292972890912  0.6093684258885559  0.9516962246994147  1.0000
  Sb  Sb1       1.0  0.8984786155927089  0.15395942812755614  0.5006235946428812  1.0000
  Sb  Sb2       1.0  0.062015773758483175  0.7719450537881175  0.5178937652725666  1.0000
  Sb  Sb3       1.0  0.7756261302618848  0.12979239439856857  0.9420032147676335  1.0000
  Sb  Sb4       1.0  0.2767714358049801  0.9167194129662094  0.08765186942087855  1.0000
  Sb  Sb5       1.0  0.5579492958874449  0.5390655191478771  0.3275746899384943  1.0000
  Sb  Sb6       1.0  0.45313102595070975  0.49159517541603076  0.6883143839642052  1.0000
  Sb  Sb7       1.0  0.539885101419826  0.6095100689989373  0.15762671966127295  1.0000
  Sb  Sb8       1.0  0.5462750413796477  0.46724311196663987  0.865270477150619  1.0000
  Sb  Sb9       1.0  0.7471266732498606  0.28697985441023705  0.2343474325367963  1.0000
  Sb  Sb10      1.0  0.22797367854777312  0.6373475983667248  0.7544115305334259  1.0000
  O   O1        1.0  0.5197944243845618  0.8322796412163589  0.26744093497272753  1.0000
  O   O2        1.0  0.5925725200541533  0.2498085328084146  0.7453864775167272  1.0000
data_image15
_chemical_formula_structural       Eu10Cd4Sb10O2
_chemical_formula_sum              "Eu10 Cd4 Sb10 O2"
_cell_length_a       11.24426501306804
_cell_length_b       11.24426501306804
_cell_length_c       14.850709
_cell_angle_alpha    90.0
_cell_angle_beta     90.0
_cell_angle_gamma    155.89846091665316

_space_group_name_H-M_alt    "P 1"
_space_group_IT_number       1

loop_
  _space_group_symop_operation_xyz
  'x, y, z'

loop_
  _atom_site_type_symbol
  _atom_site_label
  _atom_site_symmetry_multiplicity
  _atom_site_fract_x
  _atom_site_fract_y
  _atom_site_fract_z
  _atom_site_occupancy
  Eu  Eu1       1.0  0.49808201985737904  0.09239023503418786  0.8638564452706065  1.0000
  Eu  Eu2       1.0  0.2874996478706829  0.6377192269465642  0.1384513852514291  1.0000
  Eu  Eu3       1.0  0.6981873218217265  0.2505095994753664  0.6115290110854121  1.0000
  Eu  Eu4       1.0  0.223314815015404  0.6977676531981668  0.3880090369568962  1.0000
  Eu  Eu5       1.0  0.8774274524198413  0.06127653692557211  0.2827862175978332  1.0000
  Eu  Eu6       1.0  0.19363987735142343  0.010616572510500522  0.7285334135253434  1.0000
  Eu  Eu7       1.0  0.15091161860728214  0.9952381556857953  0.22892104495446944  1.0000
  Eu  Eu8       1.0  0.8640384094289816  0.04091239913106832  0.7803595307714863  1.0000
  Eu  Eu9       1.0  0.06429471346073558  0.03725656768509799  0.46037739219371177  1.0000
  Eu  Eu10      1.0  0.9767194323679186  0.022555372268577706  0.9877660794257785  1.0000
  Cd  Cd1       1.0  0.7012739325356597  0.41664732584056885  0.39030465118695473  1.0000
  Cd  Cd2       1.0  0.41334025154201287  0.7224900957296513  0.5981237457495833  1.0000
  Cd  Cd3       1.0  0.5958408116971007  0.43660088776161554  0.050851968410200996  1.0000
  Cd  Cd4       1.0  0.3794945892527142  0.5797748417901089  0.9446094134598217  1.0000
  Sb  Sb1       1.0  0.8925381637647294  0.17254701259002297  0.4766328248951738  1.0000
  Sb  Sb2       1.0  0.06798596139362661  0.7714432440629283  0.5501997053969099  1.0000
  Sb  Sb3       1.0  0.8607353143635499  0.18624248637244126  0.9548539644961483  1.0000
  Sb  Sb4       1.0  0.30495117361699575  0.9629441176797204  0.08071892666819847  1.0000
  Sb  Sb5       1.0  0.5480757836545951  0.5152362947951067  0.3434226173459364  1.0000
  Sb  Sb6       1.0  0.4635117462575212  0.49399119521093876  0.6667823441652878  1.0000
  Sb  Sb7       1.0  0.5298832904843375  0.6056464063101662  0.11750296328909077  1.0000
  Sb  Sb8       1.0  0.5556427896966126  0.49497755365105806  0.8491701804520773  1.0000
  Sb  Sb9       1.0  0.681450470743357  0.23329418822828943  0.21827136219872076  1.0000
  Sb  Sb10      1.0  0.19281810561737384  0.596821825073321  0.7878143587798524  1.0000
  O   O1        1.0  0.423003900239129  0.716607755916621  0.27206316360376354  1.0000
  O   O2        1.0  0.685613520053698  0.3718241416418444  0.7511018741626121  1.0000
data_image16
_chemical_formula_structural       Eu10Cd4Sb10O2
_chemical_formula_sum              "Eu10 Cd4 Sb10 O2"
_cell_length_a       11.24426501306804
_cell_length_b       11.24426501306804
_cell_length_c       14.850709
_cell_angle_alpha    90.0
_cell_angle_beta     90.0
_cell_angle_gamma    155.89846091665316

_space_group_name_H-M_alt    "P 1"
_space_group_IT_number       1

loop_
  _space_group_symop_operation_xyz
  'x, y, z'

loop_
  _atom_site_type_symbol
  _atom_site_label
  _atom_site_symmetry_multiplicity
  _atom_site_fract_x
  _atom_site_fract_y
  _atom_site_fract_z
  _atom_site_occupancy
  Eu  Eu1       1.0  0.481722750015523  0.07253712680045854  0.8674904648468041  1.0000
  Eu  Eu2       1.0  0.26098302617347746  0.6126789642381654  0.1287765305133201  1.0000
  Eu  Eu3       1.0  0.7821652568890705  0.2934307152963592  0.6308263717865821  1.0000
  Eu  Eu4       1.0  0.30436830969925527  0.7547374029697068  0.3736224391758679  1.0000
  Eu  Eu5       1.0  0.8522444370442245  0.023908699753871547  0.28217051300448687  1.0000
  Eu  Eu6       1.0  0.22156104951398076  0.04192068230423329  0.7298250049002803  1.0000
  Eu  Eu7       1.0  0.1615292040961884  0.004841426207636834  0.22467746344611786  1.0000
  Eu  Eu8       1.0  0.9257937717638909  0.12370977280186488  0.7820147390581434  1.0000
  Eu  Eu9       1.0  0.985754596583207  0.9839778029061881  0.47877299707233495  1.0000
  Eu  Eu10      1.0  0.013770329110587063  0.005158041462910395  0.9962165153346936  1.0000
  Cd  Cd1       1.0  0.6996998402468182  0.42307374169667245  0.38862147068905806  1.0000
  Cd  Cd2       1.0  0.33312985603663703  0.6714228850207572  0.587093622869688  1.0000
  Cd  Cd3       1.0  0.6837759056347894  0.4990150200518207  0.03853819199123052  1.0000
  Cd  Cd4       1.0  0.42701899184330916  0.6526040812272009  0.9586416332966625  1.0000
  Sb  Sb1       1.0  0.8806023110183097  0.18180128372180157  0.4969014846113607  1.0000
  Sb  Sb2       1.0  0.08860947173670503  0.7749249774533085  0.5126046471302039  1.0000
  Sb  Sb3       1.0  0.8486353585938503  0.22499599751313776  0.9833398432820469  1.0000
  Sb  Sb4       1.0  0.28447859798415515  0.9457645936539745  0.06521341971599437  1.0000
  Sb  Sb5       1.0  0.6413926732508152  0.5976986998834636  0.3424281269069951  1.0000
  Sb  Sb6       1.0  0.4259508433272264  0.4729477612661128  0.6388056157022226  1.0000
  Sb  Sb7       1.0  0.3775601346402038  0.44303360232992167  0.14738964617483444  1.0000
  Sb  Sb8       1.0  0.5182921957724992  0.4883302059016404  0.8355258278411075  1.0000
  Sb  Sb9       1.0  0.6714070950416771  0.21965937149511117  0.21585996603187393  1.0000
  Sb  Sb10      1.0  0.15273758869053813  0.5514811981887058  0.7900434407160992  1.0000
  O   O1        1.0  0.2655719856077879  0.5487494258090504  0.27807992702919776  1.0000
  O   O2        1.0  0.5700434384676776  0.23245925936012446  0.7250939417661121  1.0000
data_image17
_chemical_formula_structural       Eu10Cd4Sb10O2
_chemical_formula_sum              "Eu10 Cd4 Sb10 O2"
_cell_length_a       11.24426501306804
_cell_length_b       11.24426501306804
_cell_length_c       14.850709
_cell_angle_alpha    90.0
_cell_angle_beta     90.0
_cell_angle_gamma    155.89846091665316

_space_group_name_H-M_alt    "P 1"
_space_group_IT_number       1

loop_
  _space_group_symop_operation_xyz
  'x, y, z'

loop_
  _atom_site_type_symbol
  _atom_site_label
  _atom_site_symmetry_multiplicity
  _atom_site_fract_x
  _atom_site_fract_y
  _atom_site_fract_z
  _atom_site_occupancy
  Eu  Eu1       1.0  0.5163072962295502  0.07060283090848349  0.8645828322914251  1.0000
  Eu  Eu2       1.0  0.2996999687320267  0.6832321553772475  0.13170167955899156  1.0000
  Eu  Eu3       1.0  0.7501647321661127  0.26038367696640535  0.650046443005643  1.0000
  Eu  Eu4       1.0  0.30839679617832705  0.7341566055259978  0.36258079140403915  1.0000
  Eu  Eu5       1.0  0.8746601158416368  0.06199214270712774  0.2871203114547019  1.0000
  Eu  Eu6       1.0  0.18589659004671913  0.015572336459902969  0.7298991598792439  1.0000
  Eu  Eu7       1.0  0.19801187689164615  0.016877572683973163  0.22733778102728658  1.0000
  Eu  Eu8       1.0  0.8774979952198138  0.08697623660383459  0.7622499261718844  1.0000
  Eu  Eu9       1.0  0.006000031328728703  0.9880062801171118  0.46911155638354946  1.0000
  Eu  Eu10      1.0  0.02004099727326096  0.009482957921655844  0.0007649512787987773  1.0000
  Cd  Cd1       1.0  0.6170796859080739  0.301588796138934  0.4075428893064112  1.0000
  Cd  Cd2       1.0  0.3560877921616116  0.7085395201962232  0.5800345313219356  1.0000
  Cd  Cd3       1.0  0.7247827654742324  0.5013436732687947  0.039329335126238915  1.0000
  Cd  Cd4       1.0  0.412454169574212  0.6449079283135721  0.9360456200189974  1.0000
  Sb  Sb1       1.0  0.8268650035975096  0.1629544815337445  0.4818039857295232  1.0000
  Sb  Sb2       1.0  0.1566989495754674  0.7950086544105489  0.5300432608639447  1.0000
  Sb  Sb3       1.0  0.8325676569424851  0.2211857901685145  0.9898290557278924  1.0000
  Sb  Sb4       1.0  0.24941959920797732  0.9346176560330596  0.06299535574660142  1.0000
  Sb  Sb5       1.0  0.5733029245328632  0.5291307172369278  0.3243973630665114  1.0000
  Sb  Sb6       1.0  0.4160707307454082  0.49902589816581383  0.6406639204438049  1.0000
  Sb  Sb7       1.0  0.4330003464453405  0.4910828900404447  0.15748313218199267  1.0000
  Sb  Sb8       1.0  0.5357008151203431  0.5393284874239077  0.8416803289216719  1.0000
  Sb  Sb9       1.0  0.6877573096032755  0.2336042745497061  0.23097422355236674  1.0000
  Sb  Sb10      1.0  0.13943310479159446  0.5558083037175973  0.7864777914790734  1.0000
  O   O1        1.0  0.3796072569483748  0.6324662988736458  0.2611557358282089  1.0000
  O   O2        1.0  0.5428056856692538  0.21285807278416885  0.7622058137898972  1.0000
data_image18
_chemical_formula_structural       Eu10Cd4Sb10O2
_chemical_formula_sum              "Eu10 Cd4 Sb10 O2"
_cell_length_a       11.24426501306804
_cell_length_b       11.24426501306804
_cell_length_c       14.850709
_cell_angle_alpha    90.0
_cell_angle_beta     90.0
_cell_angle_gamma    155.89846091665316

_space_group_name_H-M_alt    "P 1"
_space_group_IT_number       1

loop_
  _space_group_symop_operation_xyz
  'x, y, z'

loop_
  _atom_site_type_symbol
  _atom_site_label
  _atom_site_symmetry_multiplicity
  _atom_site_fract_x
  _atom_site_fract_y
  _atom_site_fract_z
  _atom_site_occupancy
  Eu  Eu1       1.0  0.5354965114331853  0.10583071208637351  0.8707032149775654  1.0000
  Eu  Eu2       1.0  0.3005576404023039  0.6906365375456175  0.13471402073617858  1.0000
  Eu  Eu3       1.0  0.6922444836217351  0.25773427138058114  0.6389110117229927  1.0000
  Eu  Eu4       1.0  0.2972215477907839  0.7622546688746082  0.3480874543529333  1.0000
  Eu  Eu5       1.0  0.9976443842249086  0.1908547456629806  0.26346563090720304  1.0000
  Eu  Eu6       1.0  0.15310875036778385  0.9739735474148414  0.7137623792121678  1.0000
  Eu  Eu7       1.0  0.13043727450610723  0.924970461999799  0.25205442972230613  1.0000
  Eu  Eu8       1.0  0.7837599282540113  0.006550493263695379  0.7595715744298311  1.0000
  Eu  Eu9       1.0  0.050337318182805645  0.027043399139759904  0.4782662271307443  1.0000
  Eu  Eu10      1.0  0.9553077600380975  0.9445743070175759  0.9842942082839181  1.0000
  Cd  Cd1       1.0  0.5563414367353889  0.22611561037633274  0.4123586801592061  1.0000
  Cd  Cd2       1.0  0.3557975556834321  0.6914654488108103  0.573005755841069  1.0000
  Cd  Cd3       1.0  0.6261784687771703  0.43403121985966464  0.03193530401462005  1.0000
  Cd  Cd4       1.0  0.3882872700820967  0.6240834842061589  0.934585414696938  1.0000
  Sb  Sb1       1.0  0.9383021593014892  0.23508550438542394  0.46719954829768967  1.0000
  Sb  Sb2       1.0  0.14123262689007482  0.7511688646345213  0.553284027255342  1.0000
  Sb  Sb3       1.0  0.8339733589276802  0.18225202167769566  0.00945905041270321  1.0000
  Sb  Sb4       1.0  0.22208123581688965  0.8804548900913441  0.04523724125350914  1.0000
  Sb  Sb5       1.0  0.5882727020589977  0.5284871616564599  0.33307649393972333  1.0000
  Sb  Sb6       1.0  0.5025193932470126  0.5857980829368696  0.6398992755659995  1.0000
  Sb  Sb7       1.0  0.5071406121322497  0.5788578075915664  0.13546564849947668  1.0000
  Sb  Sb8       1.0  0.5104508891176565  0.5041968991290151  0.8547906891762526  1.0000
  Sb  Sb9       1.0  0.8076146483437219  0.3822393020992384  0.25363027848464686  1.0000
  Sb  Sb10      1.0  0.13087320038896372  0.530055499339777  0.8145604851471434  1.0000
  O   O1        1.0  0.4321546438159312  0.7095236254390236  0.28941020340267287  1.0000
  O   O2        1.0  0.6160073281060985  0.3326087365993198  0.7481209664508635  1.0000
data_image19
_chemical_formula_structural       Eu10Cd4Sb10O2
_chemical_formula_sum              "Eu10 Cd4 Sb10 O2"
_cell_length_a       11.24426501306804
_cell_length_b       11.24426501306804
_cell_length_c       14.850709
_cell_angle_alpha    90.0
_cell_angle_beta     90.0
_cell_angle_gamma    155.89846091665316

_space_group_name_H-M_alt    "P 1"
_space_group_IT_number       1

loop_
  _space_group_symop_operation_xyz
  'x, y, z'

loop_
  _atom_site_type_symbol
  _atom_site_label
  _atom_site_symmetry_multiplicity
  _atom_site_fract_x
  _atom_site_fract_y
  _atom_site_fract_z
  _atom_site_occupancy
  Eu  Eu1       1.0  0.5935053207452886  0.20651100267302852  0.8938572459468076  1.0000
  Eu  Eu2       1.0  0.3152470771587225  0.714839083565539  0.1349892348289655  1.0000
  Eu  Eu3       1.0  0.6252480769672698  0.16124242769028302  0.6378541431184958  1.0000
  Eu  Eu4       1.0  0.39395611677732123  0.8393040655938271  0.37446387000098363  1.0000
  Eu  Eu5       1.0  0.13084636686493356  0.3140543817663635  0.27184075915272665  1.0000
  Eu  Eu6       1.0  0.09022511808475053  0.9314989380972437  0.7296262074941382  1.0000
  Eu  Eu7       1.0  0.06007547666150237  0.8332624615469888  0.23708587097329575  1.0000
  Eu  Eu8       1.0  0.7475088301174475  0.9955137050103344  0.7525094029699093  1.0000
  Eu  Eu9       1.0  0.03557733347982167  0.013213598205559176  0.49514497344070496  1.0000
  Eu  Eu10      1.0  0.03339385476359424  0.03105001011536199  0.9910476077243863  1.0000
  Cd  Cd1       1.0  0.6161026501547202  0.3036670832164484  0.4278832775438306  1.0000
  Cd  Cd2       1.0  0.34774600414481377  0.7018484076924887  0.5673015589394818  1.0000
  Cd  Cd3       1.0  0.5697834458796639  0.4142537984396456  0.9980394673994117  1.0000
  Cd  Cd4       1.0  0.457754993004214  0.6716712348903432  0.9549233503847174  1.0000
  Sb  Sb1       1.0  0.8746052882300482  0.12157860031012702  0.4464618314535582  1.0000
  Sb  Sb2       1.0  0.07197572191304386  0.7294663132048479  0.5226437229888925  1.0000
  Sb  Sb3       1.0  0.8802538490169275  0.1767118097755352  0.03385620964356909  1.0000
  Sb  Sb4       1.0  0.08470980418259808  0.7725137643550037  0.057940905184535874  1.0000
  Sb  Sb5       1.0  0.46715460882646087  0.3759678778395496  0.3302352716347023  1.0000
  Sb  Sb6       1.0  0.5583877265350196  0.6343175216597668  0.6360242249391476  1.0000
  Sb  Sb7       1.0  0.6375697163306403  0.6416948784435015  0.1397954718616397  1.0000
  Sb  Sb8       1.0  0.5014377373791569  0.5121001952645036  0.8346258799966351  1.0000
  Sb  Sb9       1.0  0.6851965460980559  0.26690147878787446  0.21525384593279956  1.0000
  Sb  Sb10      1.0  0.19438974246046892  0.6253450816145383  0.8074273250590447  1.0000
  O   O1        1.0  0.6332679018901615  0.8913187403992558  0.25396726596685026  1.0000
  O   O2        1.0  0.4749506365386258  0.1665845644768277  0.7352708194243177  1.0000
data_image20
_chemical_formula_structural       Eu10Cd4Sb10O2
_chemical_formula_sum              "Eu10 Cd4 Sb10 O2"
_cell_length_a       11.24426501306804
_cell_length_b       11.24426501306804
_cell_length_c       14.850709
_cell_angle_alpha    90.0
_cell_angle_beta     90.0
_cell_angle_gamma    155.89846091665316

_space_group_name_H-M_alt    "P 1"
_space_group_IT_number       1

loop_
  _space_group_symop_operation_xyz
  'x, y, z'

loop_
  _atom_site_type_symbol
  _atom_site_label
  _atom_site_symmetry_multiplicity
  _atom_site_fract_x
  _atom_site_fract_y
  _atom_site_fract_z
  _atom_site_occupancy
  Eu  Eu1       1.0  0.6793028505349147  0.2691660587887727  0.9058959335226384  1.0000
  Eu  Eu2       1.0  0.3071205934460917  0.7403848885941908  0.14494548978414748  1.0000
  Eu  Eu3       1.0  0.6998285310268477  0.2539906905934716  0.6638031298343773  1.0000
  Eu  Eu4       1.0  0.4063957065216049  0.8410917090657039  0.3763113265204226  1.0000
  Eu  Eu5       1.0  0.1762066669925022  0.3473990159036598  0.28804199350127546  1.0000
  Eu  Eu6       1.0  0.9949775797132191  0.8594869217033647  0.734304898193231  1.0000
  Eu  Eu7       1.0  0.002419270420585527  0.7406048008093286  0.23209878812598528  1.0000
  Eu  Eu8       1.0  0.7676484296439116  0.03815875851144225  0.7614153464334904  1.0000
  Eu  Eu9       1.0  0.0374905058942036  0.9954952102003909  0.48325245059674976  1.0000
  Eu  Eu10      1.0  0.08893338649846447  0.1129023108098138  0.9828760181872057  1.0000
  Cd  Cd1       1.0  0.5696771933242035  0.24732780327516543  0.403659180672999  1.0000
  Cd  Cd2       1.0  0.2678875654829734  0.5891483705400649  0.5641723268699445  1.0000
  Cd  Cd3       1.0  0.541853174692893  0.36599574415899017  0.9981833373399408  1.0000
  Cd  Cd4       1.0  0.44069215176131277  0.664486661324743  0.9482632661885408  1.0000
  Sb  Sb1       1.0  0.8984721825356217  0.13068455278594465  0.4717358579960562  1.0000
  Sb  Sb2       1.0  0.09629201027179912  0.7908536759846357  0.5323762971172392  1.0000
  Sb  Sb3       1.0  0.9196679368108954  0.2139580809358588  0.039271680781276984  1.0000
  Sb  Sb4       1.0  0.10830616590106043  0.7906358204614539  0.010452290745385673  1.0000
  Sb  Sb5       1.0  0.37967731645872127  0.29671364231677994  0.32161900205653504  1.0000
  Sb  Sb6       1.0  0.5465416232506918  0.6054811653046026  0.623025545450012  1.0000
  Sb  Sb7       1.0  0.6204962945907453  0.5714424892433665  0.15488225025666666  1.0000
  Sb  Sb8       1.0  0.500150695809924  0.5156340571503669  0.8376925135822249  1.0000
  Sb  Sb9       1.0  0.6674807083505578  0.256003539374115  0.182306775335657  1.0000
  Sb  Sb10      1.0  0.23479638898519292  0.7147427225095878  0.8126022422174263  1.0000
  O   O1        1.0  0.38291325166231227  0.7067367219592215  0.25317992901467595  1.0000
  O   O2        1.0  0.5278650546126289  0.2156955695419499  0.7468543933305871  1.0000
data_image21
_chemical_formula_structural       Eu10Cd4Sb10O2
_chemical_formula_sum              "Eu10 Cd4 Sb10 O2"
_cell_length_a       11.24426501306804
_cell_length_b       11.24426501306804
_cell_length_c       14.850709
_cell_angle_alpha    90.0
_cell_angle_beta     90.0
_cell_angle_gamma    155.89846091665316

_space_group_name_H-M_alt    "P 1"
_space_group_IT_number       1

loop_
  _space_group_symop_operation_xyz
  'x, y, z'

loop_
  _atom_site_type_symbol
  _atom_site_label
  _atom_site_symmetry_multiplicity
  _atom_site_fract_x
  _atom_site_fract_y
  _atom_site_fract_z
  _atom_site_occupancy
  Eu  Eu1       1.0  0.666961266196468  0.2326107324986572  0.871129270927963  1.0000
  Eu  Eu2       1.0  0.2577706470584278  0.6729304710161379  0.1317423662564813  1.0000
  Eu  Eu3       1.0  0.6978749199089025  0.28290761349007904  0.6424245784049616  1.0000
  Eu  Eu4       1.0  0.30792230674524473  0.7869646364979809  0.3901264209615956  1.0000
  Eu  Eu5       1.0  0.12800164076026332  0.27172589465175984  0.2686053571526152  1.0000
  Eu  Eu6       1.0  0.029454768110968657  0.8954463714174661  0.7641784603216046  1.0000
  Eu  Eu7       1.0  0.04778876000402314  0.7683666547598246  0.23427755146485674  1.0000
  Eu  Eu8       1.0  0.8721072733309474  0.11520123588609185  0.7580017633375897  1.0000
  Eu  Eu9       1.0  0.048194898330843984  0.022964901042092  0.4819026099865723  1.0000
  Eu  Eu10      1.0  0.03612950434370625  0.06005489502638747  0.011944001087318686  1.0000
  Cd  Cd1       1.0  0.6312849851190714  0.32144731879266497  0.37655511522560287  1.0000
  Cd  Cd2       1.0  0.3392021628253229  0.649423171373739  0.6054097859701711  1.0000
  Cd  Cd3       1.0  0.5647386322425367  0.37945517122925093  0.008866293450932653  1.0000
  Cd  Cd4       1.0  0.4343463209543904  0.704629389588074  0.9641041112136177  1.0000
  Sb  Sb1       1.0  0.8272807661955992  0.09669885063579023  0.4655362411346897  1.0000
  Sb  Sb2       1.0  0.18560761648774363  0.8834026932341854  0.5312644614011206  1.0000
  Sb  Sb3       1.0  0.8344825385818349  0.11400128671166104  0.06986417156612937  1.0000
  Sb  Sb4       1.0  0.18656545373482675  0.860076353296619  0.9828170555161535  1.0000
  Sb  Sb5       1.0  0.4652174624396102  0.39134377462869996  0.34970166725615537  1.0000
  Sb  Sb6       1.0  0.5182243287589593  0.5987049712526155  0.5854103480937584  1.0000
  Sb  Sb7       1.0  0.5800749224833943  0.5485094498999434  0.1693839474254719  1.0000
  Sb  Sb8       1.0  0.47371674985246404  0.4837401121432052  0.8633812476368932  1.0000
  Sb  Sb9       1.0  0.64424465653676  0.18821316088110399  0.17666765403063017  1.0000
  Sb  Sb10      1.0  0.23409724548472055  0.6834456770935818  0.7686432449504473  1.0000
  O   O1        1.0  0.1243405082121763  0.4549380589227472  0.29912684576373466  1.0000
  O   O2        1.0  0.5646513484008997  0.28874982547125716  0.7604553402462418  1.0000
data_image22
_chemical_formula_structural       Eu10Cd4Sb10O2
_chemical_formula_sum              "Eu10 Cd4 Sb10 O2"
_cell_length_a       11.24426501306804
_cell_length_b       11.24426501306804
_cell_length_c       14.850709
_cell_angle_alpha    90.0
_cell_angle_beta     90.0
_cell_angle_gamma    155.89846091665316

_space_group_name_H-M_alt    "P 1"
_space_group_IT_number       1

loop_
  _space_group_symop_operation_xyz
  'x, y, z'

loop_
  _atom_site_type_symbol
  _atom_site_label
  _atom_site_symmetry_multiplicity
  _atom_site_fract_x
  _atom_site_fract_y
  _atom_site_fract_z
  _atom_site_occupancy
  Eu  Eu1       1.0  0.7388056133588146  0.306153926369783  0.8503234121443007  1.0000
  Eu  Eu2       1.0  0.2810437910458346  0.6942290043820808  0.14536013032557377  1.0000
  Eu  Eu3       1.0  0.7088196578571839  0.29786459282074157  0.6416160691297791  1.0000
  Eu  Eu4       1.0  0.2072342999008671  0.669303818596974  0.38775970234830015  1.0000
  Eu  Eu5       1.0  0.04365774596218386  0.20357379164698966  0.2609265345980441  1.0000
  Eu  Eu6       1.0  0.06139648347069204  0.9013034889324529  0.7313956733442888  1.0000
  Eu  Eu7       1.0  0.08693578712018622  0.8506602894422971  0.24762819775194286  1.0000
  Eu  Eu8       1.0  0.9012785414154612  0.09010091763682297  0.7763387491755125  1.0000
  Eu  Eu9       1.0  0.04280887257473601  0.014508568570243734  0.4769215300356084  1.0000
  Eu  Eu10      1.0  0.9096158070372706  0.9451356804486171  0.01592440297272917  1.0000
  Cd  Cd1       1.0  0.6296682471996717  0.2858090360133096  0.3875917426491168  1.0000
  Cd  Cd2       1.0  0.28977791326499897  0.6111258577754801  0.6015228696009716  1.0000
  Cd  Cd3       1.0  0.588711904767981  0.4236906129609592  0.013440467538961194  1.0000
  Cd  Cd4       1.0  0.42280460756381577  0.7004536118865927  0.9095221730152429  1.0000
  Sb  Sb1       1.0  0.8494055250567173  0.18151114312475236  0.4611952393654605  1.0000
  Sb  Sb2       1.0  0.2379094183357052  0.930431306751272  0.5172942183857887  1.0000
  Sb  Sb3       1.0  0.8122388274793667  0.08766971163033821  0.09692675338380848  1.0000
  Sb  Sb4       1.0  0.17228289757884635  0.834950120490929  0.9975906253634942  1.0000
  Sb  Sb5       1.0  0.5798537532430562  0.49099792601455244  0.34162653764011336  1.0000
  Sb  Sb6       1.0  0.47993023533832957  0.5335044004705473  0.6022403828631345  1.0000
  Sb  Sb7       1.0  0.5790593264071766  0.5605929271935441  0.17961657025164318  1.0000
  Sb  Sb8       1.0  0.41727305302357703  0.4383211715631915  0.8666041093481034  1.0000
  Sb  Sb9       1.0  0.6949632154947146  0.2712688897440148  0.206349476484543  1.0000
  Sb  Sb10      1.0  0.2466109588362828  0.6717917176390173  0.7638016652870155  1.0000
  O   O1        1.0  0.401108305193336  0.6903115714755865  0.26257466199963  1.0000
  O   O2        1.0  0.6966504174224881  0.4173002853461316  0.7564507688244955  1.0000
data_image23
_chemical_formula_structural       Eu10Cd4Sb10O2
_chemical_formula_sum              "Eu10 Cd4 Sb10 O2"
_cell_length_a       11.24426501306804
_cell_length_b       11.24426501306804
_cell_length_c       14.850709
_cell_angle_alpha    90.0
_cell_angle_beta     90.0
_cell_angle_gamma    155.89846091665316

_space_group_name_H-M_alt    "P 1"
_space_group_IT_number       1

loop_
  _space_group_symop_operation_xyz
  'x, y, z'

loop_
  _atom_site_type_symbol
  _atom_site_label
  _atom_site_symmetry_multiplicity
  _atom_site_fract_x
  _atom_site_fract_y
  _atom_site_fract_z
  _atom_site_occupancy
  Eu  Eu1       1.0  0.6977237495803801  0.2538666546947014  0.8702102685224197  1.0000
  Eu  Eu2       1.0  0.34364361469890115  0.7873426297056376  0.18495893387718945  1.0000
  Eu  Eu3       1.0  0.8607586402397276  0.4252431093042592  0.6591919916370171  1.0000
  Eu  Eu4       1.0  0.23440240278245383  0.7022717308854989  0.36559356528991854  1.0000
  Eu  Eu5       1.0  0.009538261282755034  0.18796125332316935  0.2742606923280099  1.0000
  Eu  Eu6       1.0  0.02646211982069581  0.8338184174039712  0.7100281002356834  1.0000
  Eu  Eu7       1.0  0.18586734443647537  0.9859621288157648  0.22161914936560953  1.0000
  Eu  Eu8       1.0  0.8196911577315552  0.9903809945873805  0.7547651173233118  1.0000
  Eu  Eu9       1.0  0.9572705884341608  0.9477725672061567  0.4817606863082849  1.0000
  Eu  Eu10      1.0  0.9127667104929216  0.9606898718929098  0.9756153173361127  1.0000
  Cd  Cd1       1.0  0.6500707881583221  0.27321874512797556  0.4206665145440132  1.0000
  Cd  Cd2       1.0  0.3525875825625298  0.6740696111069051  0.5888354458400313  1.0000
  Cd  Cd3       1.0  0.5688164509661277  0.3621177989615128  0.9936342870717713  1.0000
  Cd  Cd4       1.0  0.4010751464967783  0.6835921528919645  0.9235746362858662  1.0000
  Sb  Sb1       1.0  0.820271401271243  0.12362083339575963  0.4892956232250921  1.0000
  Sb  Sb2       1.0  0.11755339881529125  0.8089894948330659  0.5179095937398368  1.0000
  Sb  Sb3       1.0  0.7928988351581496  0.10200901757978613  0.0379133627187074  1.0000
  Sb  Sb4       1.0  0.13832525390012296  0.8153959639229184  0.9961337258576599  1.0000
  Sb  Sb5       1.0  0.6588366098249961  0.5488059937940125  0.35711634445461904  1.0000
  Sb  Sb6       1.0  0.484797156891612  0.5335237619382655  0.6531167950454937  1.0000
  Sb  Sb7       1.0  0.4856871731030058  0.47779081488067554  0.16506877884743026  1.0000
  Sb  Sb8       1.0  0.3868867692328251  0.43004624488469345  0.8594017854167639  1.0000
  Sb  Sb9       1.0  0.7951081162761586  0.39167181437945103  0.2285856556337202  1.0000
  Sb  Sb10      1.0  0.2976700724810365  0.7089325286305831  0.76407994481115  1.0000
  O   O1        1.0  0.41254066994688104  0.6659106154583467  0.2538841273701336  1.0000
  O   O2        1.0  0.46395808398426414  0.13778068222879633  0.7355963851854863  1.0000
data_image24
_chemical_formula_structural       Eu10Cd4Sb10O2
_chemical_formula_sum              "Eu10 Cd4 Sb10 O2"
_cell_length_a       11.24426501306804
_cell_length_b       11.24426501306804
_cell_length_c       14.850709
_cell_angle_alpha    90.0
_cell_angle_beta     90.0
_cell_angle_gamma    155.89846091665316

_space_group_name_H-M_alt    "P 1"
_space_group_IT_number       1

loop_
  _space_group_symop_operation_xyz
  'x, y, z'

loop_
  _atom_site_type_symbol
  _atom_site_label
  _atom_site_symmetry_multiplicity
  _atom_site_fract_x
  _atom_site_fract_y
  _atom_site_fract_z
  _atom_site_occupancy
  Eu  Eu1       1.0  0.6241561022560256  0.18003694923456637  0.8785646519749869  1.0000
  Eu  Eu2       1.0  0.37735888926178596  0.7964562709868548  0.17396517143084514  1.0000
  Eu  Eu3       1.0  0.7739950203244456  0.3222670889059715  0.6731372638209443  1.0000
  Eu  Eu4       1.0  0.325770762250241  0.792058011439822  0.4017991238273155  1.0000
  Eu  Eu5       1.0  0.9931406051628042  0.17833845177789068  0.2620653878573754  1.0000
  Eu  Eu6       1.0  0.07682306196852835  0.8630557147929161  0.7373513008645332  1.0000
  Eu  Eu7       1.0  0.20006390693275664  0.008327779657963275  0.20970305607787604  1.0000
  Eu  Eu8       1.0  0.8602304588507425  0.07730108452205352  0.7546814359041577  1.0000
  Eu  Eu9       1.0  0.048039136689351544  0.041171474736703906  0.49619116562949517  1.0000
  Eu  Eu10      1.0  0.9282685345663174  0.965885853062786  0.9683776919488969  1.0000
  Cd  Cd1       1.0  0.6651471334096996  0.337446323189243  0.44420376986154914  1.0000
  Cd  Cd2       1.0  0.3284143935206872  0.6039764594289372  0.5755575121500811  1.0000
  Cd  Cd3       1.0  0.5348271908685596  0.38073136757997195  0.985016987595013  1.0000
  Cd  Cd4       1.0  0.33616319650429427  0.6084204867046842  0.9477441693068368  1.0000
  Sb  Sb1       1.0  0.8792912891449898  0.15511660095505275  0.4516176468770779  1.0000
  Sb  Sb2       1.0  0.14726614966899756  0.844126917574999  0.5317893072526831  1.0000
  Sb  Sb3       1.0  0.8303829291080361  0.19768691469871066  0.015887244527302696  1.0000
  Sb  Sb4       1.0  0.07918842270178081  0.7434828576261204  0.0024591279763281904  1.0000
  Sb  Sb5       1.0  0.6382459685072898  0.5178571993164841  0.33976998767977157  1.0000
  Sb  Sb6       1.0  0.3892229709624087  0.40988394185915017  0.6542702459446518  1.0000
  Sb  Sb7       1.0  0.3888509967641545  0.4113012200356465  0.10996561007441573  1.0000
  Sb  Sb8       1.0  0.4353073000180641  0.4336308268119766  0.8422559668068161  1.0000
  Sb  Sb9       1.0  0.7801268791413827  0.3813779556078885  0.24550531302311385  1.0000
  Sb  Sb10      1.0  0.2866755842593043  0.674621169011487  0.7654614400007358  1.0000
  O   O1        1.0  0.46370673301398846  0.7960934492241311  0.29517738771584706  1.0000
  O   O2        1.0  0.6317170021827988  0.3608941556334445  0.7943446819994727  1.0000
data_image25
_chemical_formula_structural       Eu10Cd4Sb10O2
_chemical_formula_sum              "Eu10 Cd4 Sb10 O2"
_cell_length_a       11.24426501306804
_cell_length_b       11.24426501306804
_cell_length_c       14.850709
_cell_angle_alpha    90.0
_cell_angle_beta     90.0
_cell_angle_gamma    155.89846091665316

_space_group_name_H-M_alt    "P 1"
_space_group_IT_number       1

loop_
  _space_group_symop_operation_xyz
  'x, y, z'

loop_
  _atom_site_type_symbol
  _atom_site_label
  _atom_site_symmetry_multiplicity
  _atom_site_fract_x
  _atom_site_fract_y
  _atom_site_fract_z
  _atom_site_occupancy
  Eu  Eu1       1.0  0.5742127619202787  0.13312035411769704  0.8899013757404599  1.0000
  Eu  Eu2       1.0  0.3064873950040564  0.7141282243723593  0.15800081388404658  1.0000
  Eu  Eu3       1.0  0.6880209832340151  0.23554154532339217  0.6540478577701386  1.0000
  Eu  Eu4       1.0  0.35774826835227935  0.8242153439417388  0.36364785217735185  1.0000
  Eu  Eu5       1.0  0.8945206628070064  0.08318487430440105  0.24225914824591394  1.0000
  Eu  Eu6       1.0  0.11208315801284494  0.9232279361166343  0.7578051946061181  1.0000
  Eu  Eu7       1.0  0.18295196093273391  0.006296271755036775  0.2056765727064033  1.0000
  Eu  Eu8       1.0  0.8750073925614236  0.05880594720018313  0.7462919125625396  1.0000
  Eu  Eu9       1.0  0.12589097717577286  0.09550036563606905  0.4854235719744314  1.0000
  Eu  Eu10      1.0  0.9686810416909115  0.03915702695951986  0.9716556861086122  1.0000
  Cd  Cd1       1.0  0.6730908322439316  0.3738064992527576  0.4493761535953823  1.0000
  Cd  Cd2       1.0  0.40078638837625713  0.6496052951014951  0.566570368667314  1.0000
  Cd  Cd3       1.0  0.5873334055417907  0.42904892404626105  0.0002583796978368517  1.0000
  Cd  Cd4       1.0  0.35848472946665194  0.5919156856774839  0.9104835609658963  1.0000
  Sb  Sb1       1.0  0.8383416241291738  0.10123756419242995  0.4735504018761369  1.0000
  Sb  Sb2       1.0  0.1357305391205987  0.8279307003642248  0.5538815469263655  1.0000
  Sb  Sb3       1.0  0.8323473037780574  0.16866383687350664  0.0414164287791457  1.0000
  Sb  Sb4       1.0  0.11308684938327199  0.7793088341576521  0.043439778663043827  1.0000
  Sb  Sb5       1.0  0.5503387253889193  0.48407547612695434  0.3263303804934691  1.0000
  Sb  Sb6       1.0  0.5138760348463303  0.48354224847449234  0.6543396137717657  1.0000
  Sb  Sb7       1.0  0.4582583081542005  0.5321692533597774  0.11671961388225165  1.0000
  Sb  Sb8       1.0  0.5175113367665531  0.5260674486558327  0.8190263576028151  1.0000
  Sb  Sb9       1.0  0.735724386426794  0.3374154163083977  0.2753154698445981  1.0000
  Sb  Sb10      1.0  0.17457273011565633  0.5756206049142409  0.784966419719197  1.0000
  O   O1        1.0  0.30625179910300954  0.6041181152077507  0.27464366842658294  1.0000
  O   O2        1.0  0.7424367751115445  0.4505591006738693  0.7776872700599375  1.0000
data_image26
_chemical_formula_structural       Eu10Cd4Sb10O2
_chemical_formula_sum              "Eu10 Cd4 Sb10 O2"
_cell_length_a       11.24426501306804
_cell_length_b       11.24426501306804
_cell_length_c       14.850709
_cell_angle_alpha    90.0
_cell_angle_beta     90.0
_cell_angle_gamma    155.89846091665316

_space_group_name_H-M_alt    "P 1"
_space_group_IT_number       1

loop_
  _space_group_symop_operation_xyz
  'x, y, z'

loop_
  _atom_site_type_symbol
  _atom_site_label
  _atom_site_symmetry_multiplicity
  _atom_site_fract_x
  _atom_site_fract_y
  _atom_site_fract_z
  _atom_site_occupancy
  Eu  Eu1       1.0  0.6118980842997485  0.18431730807138264  0.9072430191427082  1.0000
  Eu  Eu2       1.0  0.17855362450178652  0.6076418603492288  0.14556447432466282  1.0000
  Eu  Eu3       1.0  0.6828404140187081  0.21631785507722287  0.6535704586348634  1.0000
  Eu  Eu4       1.0  0.31067404449288827  0.7820563361432357  0.37164090702542574  1.0000
  Eu  Eu5       1.0  0.8285113861030937  0.03519150638040242  0.22640651887849414  1.0000
  Eu  Eu6       1.0  0.16714566092431968  0.9540593922866768  0.7728082691484749  1.0000
  Eu  Eu7       1.0  0.1360082331117724  0.9576898232202296  0.2142636373103432  1.0000
  Eu  Eu8       1.0  0.8922182563068267  0.0802294488675746  0.7189622268142092  1.0000
  Eu  Eu9       1.0  0.08766090065823301  0.056577941998542665  0.46346668384455175  1.0000
  Eu  Eu10      1.0  0.01435032362662207  0.04863795795279775  0.9730624884934876  1.0000
  Cd  Cd1       1.0  0.656573252864099  0.38873491594116055  0.45518816770508413  1.0000
  Cd  Cd2       1.0  0.4279504742168362  0.6089775935981755  0.5928269083260591  1.0000
  Cd  Cd3       1.0  0.6205675549131402  0.42053358440227867  0.031036054661458885  1.0000
  Cd  Cd4       1.0  0.2689629908248956  0.5324113368409762  0.9317099148755889  1.0000
  Sb  Sb1       1.0  0.8324709409255334  0.082089271089459  0.4548630858087577  1.0000
  Sb  Sb2       1.0  0.09174068072936821  0.8075145360861307  0.5606578705072989  1.0000
  Sb  Sb3       1.0  0.7792565646563416  0.09690296537545257  0.017630896791723465  1.0000
  Sb  Sb4       1.0  0.13826364676347608  0.7989912811299965  0.047854407988688896  1.0000
  Sb  Sb5       1.0  0.5922371997096041  0.5830442080679339  0.3021911227445382  1.0000
  Sb  Sb6       1.0  0.7247148656958  0.6600537960285735  0.6318773752174799  1.0000
  Sb  Sb7       1.0  0.5558958899937471  0.5951938350475056  0.11169333265588732  1.0000
  Sb  Sb8       1.0  0.5095038688772432  0.5455032466638742  0.8496421931079101  1.0000
  Sb  Sb9       1.0  0.7279343663609267  0.3438924390204412  0.2898465401444908  1.0000
  Sb  Sb10      1.0  0.1927517300184774  0.6441290424302103  0.7822983898620893  1.0000
  O   O1        1.0  0.4131875593760163  0.7169494566426583  0.2592938579550386  1.0000
  O   O2        1.0  0.5424151998968453  0.21024035861367207  0.769114172645073  1.0000
data_image27
_chemical_formula_structural       Eu10Cd4Sb10O2
_chemical_formula_sum              "Eu10 Cd4 Sb10 O2"
_cell_length_a       11.24426501306804
_cell_length_b       11.24426501306804
_cell_length_c       14.850709
_cell_angle_alpha    90.0
_cell_angle_beta     90.0
_cell_angle_gamma    155.89846091665316

_space_group_name_H-M_alt    "P 1"
_space_group_IT_number       1

loop_
  _space_group_symop_operation_xyz
  'x, y, z'

loop_
  _atom_site_type_symbol
  _atom_site_label
  _atom_site_symmetry_multiplicity
  _atom_site_fract_x
  _atom_site_fract_y
  _atom_site_fract_z
  _atom_site_occupancy
  Eu  Eu1       1.0  0.7072508081972548  0.26044592553280455  0.9286153806341926  1.0000
  Eu  Eu2       1.0  0.13442719243335352  0.5929138204205147  0.13429262455668137  1.0000
  Eu  Eu3       1.0  0.6708466477043388  0.1808266638672613  0.6428259426446131  1.0000
  Eu  Eu4       1.0  0.2901710095190265  0.7350406352621116  0.3813555546573893  1.0000
  Eu  Eu5       1.0  0.8700563340380632  0.08287645378685593  0.22077345765212222  1.0000
  Eu  Eu6       1.0  0.16682254999473733  0.9586358537453432  0.7901047584645833  1.0000
  Eu  Eu7       1.0  0.1298282104051089  0.9313122949273973  0.24312708854442844  1.0000
  Eu  Eu8       1.0  0.9687346246693349  0.15609540315006623  0.7250425098172248  1.0000
  Eu  Eu9       1.0  0.08993173687817999  0.07062280840601354  0.4687424586922519  1.0000
  Eu  Eu10      1.0  0.04558559119437871  0.03999624571537975  0.9835924374361765  1.0000
  Cd  Cd1       1.0  0.6177966291143786  0.384576079277762  0.44550433173986564  1.0000
  Cd  Cd2       1.0  0.4451023025938384  0.6230884939743884  0.5654909420868968  1.0000
  Cd  Cd3       1.0  0.4969595643693632  0.29538635996698914  0.035466731928390546  1.0000
  Cd  Cd4       1.0  0.30477970489398826  0.5683556450153636  0.9233282911312444  1.0000
  Sb  Sb1       1.0  0.7625749907831215  0.03834493876455243  0.4424771236837047  1.0000
  Sb  Sb2       1.0  0.14163156257310053  0.8613354242556823  0.5563191050325721  1.0000
  Sb  Sb3       1.0  0.7467347965273479  0.06276399564216494  0.9990110630132334  1.0000
  Sb  Sb4       1.0  0.08685404419628434  0.8006843459307668  0.009041004488388626  1.0000
  Sb  Sb5       1.0  0.6046400414916393  0.6051287084037112  0.3200643755341973  1.0000
  Sb  Sb6       1.0  0.7407216764780439  0.6669322524152117  0.6390048279786331  1.0000
  Sb  Sb7       1.0  0.54059471012804  0.5483190905538781  0.1114301068155718  1.0000
  Sb  Sb8       1.0  0.5311615025746412  0.565547087743841  0.8349275344068168  1.0000
  Sb  Sb9       1.0  0.6796687504118383  0.30832609123571203  0.29849256192296436  1.0000
  Sb  Sb10      1.0  0.2248317419671801  0.6797292874918073  0.7888593411346398  1.0000
  O   O1        1.0  0.2523508615769485  0.5517133331106024  0.24939056454267097  1.0000
  O   O2        1.0  0.5512934755941941  0.2512071563532902  0.7637920256437778  1.0000
data_image28
_chemical_formula_structural       Eu10Cd4Sb10O2
_chemical_formula_sum              "Eu10 Cd4 Sb10 O2"
_cell_length_a       11.24426501306804
_cell_length_b       11.24426501306804
_cell_length_c       14.850709
_cell_angle_alpha    90.0
_cell_angle_beta     90.0
_cell_angle_gamma    155.89846091665316

_space_group_name_H-M_alt    "P 1"
_space_group_IT_number       1

loop_
  _space_group_symop_operation_xyz
  'x, y, z'

loop_
  _atom_site_type_symbol
  _atom_site_label
  _atom_site_symmetry_multiplicity
  _atom_site_fract_x
  _atom_site_fract_y
  _atom_site_fract_z
  _atom_site_occupancy
  Eu  Eu1       1.0  0.7606781463294768  0.2893716297069225  0.8929034045715599  1.0000
  Eu  Eu2       1.0  0.1186551697073892  0.6100925485249459  0.1351136903430195  1.0000
  Eu  Eu3       1.0  0.6558337205583185  0.17388920466522412  0.6422910327160171  1.0000
  Eu  Eu4       1.0  0.28133860953370643  0.7052901880634792  0.3684078043549404  1.0000
  Eu  Eu5       1.0  0.8498731939317492  0.060626110392966365  0.22771768290263722  1.0000
  Eu  Eu6       1.0  0.056675872734596025  0.856613763821642  0.7774355608051416  1.0000
  Eu  Eu7       1.0  0.10596266909587554  0.8756971513375172  0.24575341053517  1.0000
  Eu  Eu8       1.0  0.07096934556232193  0.23008655513649182  0.7415521079563392  1.0000
  Eu  Eu9       1.0  0.07783066600522479  0.08008964991572821  0.4765770194296923  1.0000
  Eu  Eu10      1.0  0.9650040008499957  0.9839367672336935  0.9871273179627864  1.0000
  Cd  Cd1       1.0  0.6364605162153186  0.43498912521920485  0.4466110872401848  1.0000
  Cd  Cd2       1.0  0.49825736483247923  0.6859809307588918  0.5564777979029216  1.0000
  Cd  Cd3       1.0  0.48686516181173983  0.28697711897193223  0.04601829340072838  1.0000
  Cd  Cd4       1.0  0.3076757617027343  0.6022535931161859  0.9037359986535072  1.0000
  Sb  Sb1       1.0  0.8388054789085148  0.10970505761325879  0.44152516939261716  1.0000
  Sb  Sb2       1.0  0.14474811802075613  0.8440570113458642  0.544841508009257  1.0000
  Sb  Sb3       1.0  0.8496909874670261  0.1400031546994178  0.039404715625427016  1.0000
  Sb  Sb4       1.0  0.03316331161750598  0.7391873107654436  0.9884664017277178  1.0000
  Sb  Sb5       1.0  0.528883586092485  0.5540346324584394  0.3341673313453074  1.0000
  Sb  Sb6       1.0  0.6969718598025757  0.626191842504723  0.6361690417339867  1.0000
  Sb  Sb7       1.0  0.4886938147391501  0.5046191237855604  0.17295676245647226  1.0000
  Sb  Sb8       1.0  0.5736872886701723  0.6146960831847389  0.8186205067362199  1.0000
  Sb  Sb9       1.0  0.6804084279136435  0.28313970123621274  0.30202933495522527  1.0000
  Sb  Sb10      1.0  0.2978531879257137  0.7455504614057854  0.7722129368617313  1.0000
  O   O1        1.0  0.3801588225275299  0.68648665386654  0.23137018275396548  1.0000
  O   O2        1.0  0.6544275409382367  0.31469482224710876  0.7382066367569049  1.0000
data_image29
_chemical_formula_structural       Eu10Cd4Sb10O2
_chemical_formula_sum              "Eu10 Cd4 Sb10 O2"
_cell_length_a       11.24426501306804
_cell_length_b       11.24426501306804
_cell_length_c       14.850709
_cell_angle_alpha    90.0
_cell_angle_beta     90.0
_cell_angle_gamma    155.89846091665316

_space_group_name_H-M_alt    "P 1"
_space_group_IT_number       1

loop_
  _space_group_symop_operation_xyz
  'x, y, z'

loop_
  _atom_site_type_symbol
  _atom_site_label
  _atom_site_symmetry_multiplicity
  _atom_site_fract_x
  _atom_site_fract_y
  _atom_site_fract_z
  _atom_site_occupancy
  Eu  Eu1       1.0  0.7271252817181517  0.22871620793543285  0.8806989125800083  1.0000
  Eu  Eu2       1.0  0.26710359824349156  0.7446959985327831  0.14424722121805508  1.0000
  Eu  Eu3       1.0  0.70745914649388  0.25179014511454634  0.6228093857635236  1.0000
  Eu  Eu4       1.0  0.2868054457111082  0.710554932233432  0.3736098103271533  1.0000
  Eu  Eu5       1.0  0.837745843711405  0.03971442255592196  0.23778276215905586  1.0000
  Eu  Eu6       1.0  0.015881648819638435  0.7676447610255747  0.7657520330759935  1.0000
  Eu  Eu7       1.0  0.08213792939334101  0.8529590644847681  0.23885355502312552  1.0000
  Eu  Eu8       1.0  0.05658598866584863  0.2324740462166789  0.6993958061042622  1.0000
  Eu  Eu9       1.0  0.027518052591980802  0.03722260574395486  0.47660129708074556  1.0000
  Eu  Eu10      1.0  0.9628523486240391  0.02597414051965642  0.009058109903354074  1.0000
  Cd  Cd1       1.0  0.6379184090592832  0.4180562153048199  0.4488792727530151  1.0000
  Cd  Cd2       1.0  0.4805798265198166  0.691288783685783  0.5709487178375088  1.0000
  Cd  Cd3       1.0  0.570402262843454  0.3838951895339988  0.04326800656781659  1.0000
  Cd  Cd4       1.0  0.37333248879571723  0.659082964159011  0.9137597558689868  1.0000
  Sb  Sb1       1.0  0.8733521303830204  0.16496377279693786  0.4582597032919887  1.0000
  Sb  Sb2       1.0  0.11869989906343961  0.8532469217151681  0.557494050125769  1.0000
  Sb  Sb3       1.0  0.8809555289294311  0.2064216261788767  0.0457539799963334  1.0000
  Sb  Sb4       1.0  0.14125580309422422  0.8289405513297365  0.998716162938282  1.0000
  Sb  Sb5       1.0  0.5363586062526798  0.5588809342558133  0.3561147548458017  1.0000
  Sb  Sb6       1.0  0.6243608438029487  0.5754687003846085  0.6205432151909446  1.0000
  Sb  Sb7       1.0  0.37257463451253703  0.35501048130554635  0.15767392234320807  1.0000
  Sb  Sb8       1.0  0.6399882299063283  0.645297705768214  0.8258963935548043  1.0000
  Sb  Sb9       1.0  0.627090377103842  0.23418857661686582  0.3151531965472883  1.0000
  Sb  Sb10      1.0  0.20833053916573804  0.6226470306875413  0.7391707116866517  1.0000
  O   O1        1.0  0.19548680820564446  0.5065586912094671  0.25820338988989794  1.0000
  O   O2        1.0  0.47130535257856726  0.13883861841458373  0.7946449940139526  1.0000
data_image30
_chemical_formula_structural       Eu10Cd4Sb10O2
_chemical_formula_sum              "Eu10 Cd4 Sb10 O2"
_cell_length_a       11.24426501306804
_cell_length_b       11.24426501306804
_cell_length_c       14.850709
_cell_angle_alpha    90.0
_cell_angle_beta     90.0
_cell_angle_gamma    155.89846091665316

_space_group_name_H-M_alt    "P 1"
_space_group_IT_number       1

loop_
  _space_group_symop_operation_xyz
  'x, y, z'

loop_
  _atom_site_type_symbol
  _atom_site_label
  _atom_site_symmetry_multiplicity
  _atom_site_fract_x
  _atom_site_fract_y
  _atom_site_fract_z
  _atom_site_occupancy
  Eu  Eu1       1.0  0.6518300206142893  0.17146139777346225  0.8650434113481089  1.0000
  Eu  Eu2       1.0  0.3488861017797736  0.8378939129904333  0.1389752588253379  1.0000
  Eu  Eu3       1.0  0.7301136199084514  0.2729135066475337  0.620883493226823  1.0000
  Eu  Eu4       1.0  0.3281379698122818  0.7325362287326802  0.3663450192968221  1.0000
  Eu  Eu5       1.0  0.8644141512019854  0.09233790500866805  0.25946276650067324  1.0000
  Eu  Eu6       1.0  0.06669699758263882  0.7778044822619754  0.7741489507901779  1.0000
  Eu  Eu7       1.0  0.04573733359549541  0.8765131928045004  0.2568114052116061  1.0000
  Eu  Eu8       1.0  0.012599367445753185  0.14439882075059135  0.6895299518357645  1.0000
  Eu  Eu9       1.0  0.007806263245928825  0.0004783670538089152  0.5041305588395286  1.0000
  Eu  Eu10      1.0  0.9421627159598379  0.027322429365775416  0.009582592040512244  1.0000
  Cd  Cd1       1.0  0.5982203745163408  0.3591088166101043  0.44630773064088325  1.0000
  Cd  Cd2       1.0  0.4163612699483436  0.693473576990193  0.5585299946291036  1.0000
  Cd  Cd3       1.0  0.6094961423862046  0.4217280468181889  0.031060616977620626  1.0000
  Cd  Cd4       1.0  0.411836390347152  0.686221883517965  0.9209543016059955  1.0000
  Sb  Sb1       1.0  0.9122154372477062  0.22542420404602423  0.5013517994854143  1.0000
  Sb  Sb2       1.0  0.20553900924952628  0.9248957983567747  0.5483497113978899  1.0000
  Sb  Sb3       1.0  0.8329407467825574  0.19545670358078748  0.03496970393095031  1.0000
  Sb  Sb4       1.0  0.16758360622512408  0.8372069158814269  0.9773805780080229  1.0000
  Sb  Sb5       1.0  0.45232316967682806  0.45649870907474144  0.3302375667261777  1.0000
  Sb  Sb6       1.0  0.4904490590631454  0.45780202522269164  0.6312443146524356  1.0000
  Sb  Sb7       1.0  0.382003050484517  0.3923552214442757  0.1681050512853384  1.0000
  Sb  Sb8       1.0  0.6578880442018878  0.6246401233038709  0.8182024671941177  1.0000
  Sb  Sb9       1.0  0.6565626935798166  0.2503413968333359  0.3120890278801002  1.0000
  Sb  Sb10      1.0  0.21397816387676663  0.5774500060749114  0.7349124868437534  1.0000
  O   O1        1.0  0.34443648254339737  0.6761707925123431  0.24085122786005614  1.0000
  O   O2        1.0  0.6473816660091654  0.2987009873056616  0.7476514589272951  1.0000
data_image31
_chemical_formula_structural       Eu10Cd4Sb10O2
_chemical_formula_sum              "Eu10 Cd4 Sb10 O2"
_cell_length_a       11.24426501306804
_cell_length_b       11.24426501306804
_cell_length_c       14.850709
_cell_angle_alpha    90.0
_cell_angle_beta     90.0
_cell_angle_gamma    155.89846091665316

_space_group_name_H-M_alt    "P 1"
_space_group_IT_number       1

loop_
  _space_group_symop_operation_xyz
  'x, y, z'

loop_
  _atom_site_type_symbol
  _atom_site_label
  _atom_site_symmetry_multiplicity
  _atom_site_fract_x
  _atom_site_fract_y
  _atom_site_fract_z
  _atom_site_occupancy
  Eu  Eu1       1.0  0.6532286802210981  0.16726877883032365  0.8746231774028581  1.0000
  Eu  Eu2       1.0  0.4072474590624753  0.8703238937241394  0.13227931447911953  1.0000
  Eu  Eu3       1.0  0.7534850120466183  0.28914564468448245  0.6206768380796256  1.0000
  Eu  Eu4       1.0  0.2916881218308005  0.7466877676613504  0.37917432964440234  1.0000
  Eu  Eu5       1.0  0.9867101800956578  0.20621641153104675  0.26717462940490927  1.0000
  Eu  Eu6       1.0  0.10172008782494371  0.8435098477274008  0.7647121621061865  1.0000
  Eu  Eu7       1.0  0.9962966779620226  0.8331137013212891  0.2653934595237107  1.0000
  Eu  Eu8       1.0  0.8884282281170744  0.005038305573434774  0.7083710986717487  1.0000
  Eu  Eu9       1.0  0.005033100888896891  0.029762936381506965  0.49019077498608904  1.0000
  Eu  Eu10      1.0  0.9003619204268126  0.9846490755661231  0.002755640937132358  1.0000
  Cd  Cd1       1.0  0.6546254118163807  0.4414634029658509  0.45408541001345665  1.0000
  Cd  Cd2       1.0  0.38548841501504066  0.6537888772936266  0.596577333804513  1.0000
  Cd  Cd3       1.0  0.564296609726293  0.4022851088579556  0.01190251718824608  1.0000
  Cd  Cd4       1.0  0.3526826808891725  0.5817386922453797  0.9160635695598028  1.0000
  Sb  Sb1       1.0  0.8081455306827464  0.12222589400399773  0.4686113771904597  1.0000
  Sb  Sb2       1.0  0.17563612838400705  0.8773900803989089  0.5347943501965463  1.0000
  Sb  Sb3       1.0  0.9243374776910522  0.25433575868493147  0.03551143386211068  1.0000
  Sb  Sb4       1.0  0.17383649763602943  0.8353262575358632  0.9808062790123734  1.0000
  Sb  Sb5       1.0  0.49458621584566553  0.4947255247020157  0.3328687185247837  1.0000
  Sb  Sb6       1.0  0.5452868068963829  0.5054549400952385  0.6426656598350261  1.0000
  Sb  Sb7       1.0  0.44598254854049874  0.4776961940772686  0.13411567374048086  1.0000
  Sb  Sb8       1.0  0.5564810260725724  0.5109604775264436  0.8476798695170364  1.0000
  Sb  Sb9       1.0  0.7179810380659788  0.3014473350341016  0.27138100883291594  1.0000
  Sb  Sb10      1.0  0.20154331313335494  0.5750215875590642  0.7594561882655925  1.0000
  O   O1        1.0  0.39917354309644165  0.7229342407163584  0.2621060048642161  1.0000
  O   O2        1.0  0.7413343306360384  0.3411584284748174  0.7609439869195839  1.0000
data_image32
_chemical_formula_structural       Eu10Cd4Sb10O2
_chemical_formula_sum              "Eu10 Cd4 Sb10 O2"
_cell_length_a       11.24426501306804
_cell_length_b       11.24426501306804
_cell_length_c       14.850709
_cell_angle_alpha    90.0
_cell_angle_beta     90.0
_cell_angle_gamma    155.89846091665316

_space_group_name_H-M_alt    "P 1"
_space_group_IT_number       1

loop_
  _space_group_symop_operation_xyz
  'x, y, z'

loop_
  _atom_site_type_symbol
  _atom_site_label
  _atom_site_symmetry_multiplicity
  _atom_site_fract_x
  _atom_site_fract_y
  _atom_site_fract_z
  _atom_site_occupancy
  Eu  Eu1       1.0  0.7132370914165852  0.18495212245160622  0.8882951115964345  1.0000
  Eu  Eu2       1.0  0.40107324133491934  0.8535315760111069  0.12561417143661863  1.0000
  Eu  Eu3       1.0  0.7773405123059751  0.30612360259857274  0.624104408762547  1.0000
  Eu  Eu4       1.0  0.2426691241298228  0.7519973317167813  0.37250895415270463  1.0000
  Eu  Eu5       1.0  0.019448387390006427  0.2422155924690649  0.26225036226429593  1.0000
  Eu  Eu6       1.0  0.14568522285949354  0.891342983805372  0.7328009396536587  1.0000
  Eu  Eu7       1.0  0.9975472549925418  0.8234832023732885  0.2531836140911317  1.0000
  Eu  Eu8       1.0  0.8872075161391502  0.03075091868560243  0.7609815917440318  1.0000
  Eu  Eu9       1.0  0.9655447491345861  0.032771820865067164  0.4843213547041639  1.0000
  Eu  Eu10      1.0  0.946218676453476  0.9702691898047995  0.0155840333070366  1.0000
  Cd  Cd1       1.0  0.6040145799550808  0.40955191561119597  0.4308329954267831  1.0000
  Cd  Cd2       1.0  0.3387933352490985  0.574556456460594  0.6157333442126794  1.0000
  Cd  Cd3       1.0  0.5804216471880175  0.40738922434754826  0.0014444605454149051  1.0000
  Cd  Cd4       1.0  0.41636983768064184  0.6085003060387073  0.9151742185129833  1.0000
  Sb  Sb1       1.0  0.7854626784996201  0.10484552561551433  0.45492194111036827  1.0000
  Sb  Sb2       1.0  0.18952742639685072  0.8814819876746847  0.5169759652078855  1.0000
  Sb  Sb3       1.0  0.9557365668446627  0.2519112389273125  0.03841220897056352  1.0000
  Sb  Sb4       1.0  0.07432290214575814  0.7744268660173685  0.9959368008374336  1.0000
  Sb  Sb5       1.0  0.4712264238852212  0.47617031233840507  0.33629021257897246  1.0000
  Sb  Sb6       1.0  0.5299104236370407  0.4687146901290131  0.6484259937535185  1.0000
  Sb  Sb7       1.0  0.4564847506291334  0.49545243435207476  0.144690640050943  1.0000
  Sb  Sb8       1.0  0.49259864255879027  0.4731614560664406  0.8534062975838507  1.0000
  Sb  Sb9       1.0  0.7523682336529482  0.361995307797499  0.2613245222838533  1.0000
  Sb  Sb10      1.0  0.23526795067016862  0.6129177991863257  0.7592123272753625  1.0000
  O   O1        1.0  0.31945399963886556  0.6768228875876939  0.24699933154263456  1.0000
  O   O2        1.0  0.6356455819972388  0.2747009927489012  0.7356585387249369  1.0000
data_image33
_chemical_formula_structural       Eu10Cd4Sb10O2
_chemical_formula_sum              "Eu10 Cd4 Sb10 O2"
_cell_length_a       11.24426501306804
_cell_length_b       11.24426501306804
_cell_length_c       14.850709
_cell_angle_alpha    90.0
_cell_angle_beta     90.0
_cell_angle_gamma    155.89846091665316

_space_group_name_H-M_alt    "P 1"
_space_group_IT_number       1

loop_
  _space_group_symop_operation_xyz
  'x, y, z'

loop_
  _atom_site_type_symbol
  _atom_site_label
  _atom_site_symmetry_multiplicity
  _atom_site_fract_x
  _atom_site_fract_y
  _atom_site_fract_z
  _atom_site_occupancy
  Eu  Eu1       1.0  0.8302088184622293  0.32917969756297943  0.8723495597887514  1.0000
  Eu  Eu2       1.0  0.3213009191934786  0.7697014016353108  0.11833544580419325  1.0000
  Eu  Eu3       1.0  0.7447084182773177  0.2560204807975623  0.6296733528483651  1.0000
  Eu  Eu4       1.0  0.20464041111796888  0.6835795237774392  0.3795834872129835  1.0000
  Eu  Eu5       1.0  0.987668196324211  0.21890458675899055  0.2591860754786567  1.0000
  Eu  Eu6       1.0  0.2510316613330127  0.021677816795179217  0.723171474631709  1.0000
  Eu  Eu7       1.0  0.06797338984151813  0.9249848770050632  0.23509111840419114  1.0000
  Eu  Eu8       1.0  0.8544107055394483  0.9941124854349375  0.7922204634403657  1.0000
  Eu  Eu9       1.0  0.936802043248935  0.9927786453193761  0.487426354783922  1.0000
  Eu  Eu10      1.0  0.9789325721747681  0.9726164983559613  0.00234171538697318  1.0000
  Cd  Cd1       1.0  0.5911682977628773  0.3727789153526903  0.4383648368375882  1.0000
  Cd  Cd2       1.0  0.37353848996262135  0.5951423359146976  0.5847256554076243  1.0000
  Cd  Cd3       1.0  0.5081673288141173  0.3133052372747489  0.029208715638476233  1.0000
  Cd  Cd4       1.0  0.39333807594617465  0.6077200655070099  0.9372356100601441  1.0000
  Sb  Sb1       1.0  0.827770334315748  0.16187250633538464  0.45844066175660775  1.0000
  Sb  Sb2       1.0  0.13824171740899868  0.8415909750856451  0.5170360937164226  1.0000
  Sb  Sb3       1.0  0.9345143430565171  0.2210546639258914  0.03013373025749471  1.0000
  Sb  Sb4       1.0  0.10887389691456396  0.7973249926067116  0.9738919041810193  1.0000
  Sb  Sb5       1.0  0.44057569722669876  0.49327356306396397  0.37278432914375653  1.0000
  Sb  Sb6       1.0  0.5267156535727656  0.5224923599125179  0.6463687631059537  1.0000
  Sb  Sb7       1.0  0.4948398265080688  0.48783163679991415  0.17621946876229672  1.0000
  Sb  Sb8       1.0  0.4678842888440248  0.42563820253917967  0.8303720155753427  1.0000
  Sb  Sb9       1.0  0.6020328738013921  0.2202396851834249  0.25469903591410287  1.0000
  Sb  Sb10      1.0  0.36604712192582506  0.7382428464828386  0.7503884178170795  1.0000
  O   O1        1.0  0.28983579437783125  0.6385301308786672  0.2601293318780116  1.0000
  O   O2        1.0  0.6761263816931032  0.3151108197866047  0.7356808129478487  1.0000
data_image34
_chemical_formula_structural       Eu10Cd4Sb10O2
_chemical_formula_sum              "Eu10 Cd4 Sb10 O2"
_cell_length_a       11.24426501306804
_cell_length_b       11.24426501306804
_cell_length_c       14.850709
_cell_angle_alpha    90.0
_cell_angle_beta     90.0
_cell_angle_gamma    155.89846091665316

_space_group_name_H-M_alt    "P 1"
_space_group_IT_number       1

loop_
  _space_group_symop_operation_xyz
  'x, y, z'

loop_
  _atom_site_type_symbol
  _atom_site_label
  _atom_site_symmetry_multiplicity
  _atom_site_fract_x
  _atom_site_fract_y
  _atom_site_fract_z
  _atom_site_occupancy
  Eu  Eu1       1.0  0.786080864771855  0.3139325705741366  0.8640209932309506  1.0000
  Eu  Eu2       1.0  0.30048793503447685  0.7492722083231228  0.12221045469562382  1.0000
  Eu  Eu3       1.0  0.7498531030908058  0.2753512786384431  0.6214227658229765  1.0000
  Eu  Eu4       1.0  0.27150076324538774  0.7045475209660785  0.3612980815107627  1.0000
  Eu  Eu5       1.0  0.8991291901173905  0.12544519658030764  0.2547090077453831  1.0000
  Eu  Eu6       1.0  0.1446906444388148  0.9302972001316672  0.7146448479992031  1.0000
  Eu  Eu7       1.0  0.10015054173690577  0.9412910268193683  0.2629490836849157  1.0000
  Eu  Eu8       1.0  0.9288912351929242  0.06508357107498265  0.7693379431367212  1.0000
  Eu  Eu9       1.0  0.9923045436648815  0.055284628196235086  0.4908406007165496  1.0000
  Eu  Eu10      1.0  0.8999418676854407  0.8973379407986265  0.9954819037744205  1.0000
  Cd  Cd1       1.0  0.6491429083049163  0.39373936377872953  0.4262174161196819  1.0000
  Cd  Cd2       1.0  0.34778599187420123  0.613509855771437  0.573505453975351  1.0000
  Cd  Cd3       1.0  0.565200794187234  0.30385797386488533  0.06548384407936758  1.0000
  Cd  Cd4       1.0  0.38245462378612144  0.6032244448245345  0.9318221755000469  1.0000
  Sb  Sb1       1.0  0.77610265664026  0.13056579380858785  0.4743057481175694  1.0000
  Sb  Sb2       1.0  0.08346743252798312  0.8067643996217936  0.5319127680613731  1.0000
  Sb  Sb3       1.0  0.8432878038101457  0.1385355392108263  0.044133609126271456  1.0000
  Sb  Sb4       1.0  0.18192995130103642  0.8395414515931005  0.9568289266578555  1.0000
  Sb  Sb5       1.0  0.5175707716836692  0.5635038378066315  0.37548242480853944  1.0000
  Sb  Sb6       1.0  0.5843338976404179  0.5937273868709908  0.6467656520279644  1.0000
  Sb  Sb7       1.0  0.5407017470224619  0.5552817004412629  0.17001629310580288  1.0000
  Sb  Sb8       1.0  0.4191221921021966  0.36756642805099454  0.8338570304064233  1.0000
  Sb  Sb9       1.0  0.6226021803835137  0.2571155985402833  0.2735892246236528  1.0000
  Sb  Sb10      1.0  0.40084007391559373  0.7669855790639307  0.7510656685598015  1.0000
  O   O1        1.0  0.26796019882469635  0.5934499758928485  0.2440618837647643  1.0000
  O   O2        1.0  0.6618981851340212  0.3510833393191038  0.7406169688517753  1.0000
data_image35
_chemical_formula_structural       Eu10Cd4Sb10O2
_chemical_formula_sum              "Eu10 Cd4 Sb10 O2"
_cell_length_a       11.24426501306804
_cell_length_b       11.24426501306804
_cell_length_c       14.850709
_cell_angle_alpha    90.0
_cell_angle_beta     90.0
_cell_angle_gamma    155.89846091665316

_space_group_name_H-M_alt    "P 1"
_space_group_IT_number       1

loop_
  _space_group_symop_operation_xyz
  'x, y, z'

loop_
  _atom_site_type_symbol
  _atom_site_label
  _atom_site_symmetry_multiplicity
  _atom_site_fract_x
  _atom_site_fract_y
  _atom_site_fract_z
  _atom_site_occupancy
  Eu  Eu1       1.0  0.7338076248180236  0.24736039189971654  0.862632687042157  1.0000
  Eu  Eu2       1.0  0.24983188523205116  0.7301195612472431  0.1434551582236232  1.0000
  Eu  Eu3       1.0  0.6316870354779025  0.1973203689570154  0.6283958402285453  1.0000
  Eu  Eu4       1.0  0.32750800479313297  0.7728936227529134  0.3544669885125345  1.0000
  Eu  Eu5       1.0  0.911622157293475  0.12347269391443037  0.22744928414698734  1.0000
  Eu  Eu6       1.0  0.00919917208775016  0.7967813424805219  0.7318966656752046  1.0000
  Eu  Eu7       1.0  0.07987270041367556  0.8809750350474412  0.27888851789071034  1.0000
  Eu  Eu8       1.0  0.9698680464813993  0.13606090498325624  0.7304040135910149  1.0000
  Eu  Eu9       1.0  0.9800753079447746  0.06091483114038675  0.501958342435864  1.0000
  Eu  Eu10      1.0  0.9565659074544899  0.9597725384819575  0.006329755943969088  1.0000
  Cd  Cd1       1.0  0.5733135407236242  0.3352286172683154  0.4400732888865983  1.0000
  Cd  Cd2       1.0  0.30688050370801606  0.6147271940888593  0.5801361652606241  1.0000
  Cd  Cd3       1.0  0.6405011581334611  0.3277451891513259  0.08859977977682199  1.0000
  Cd  Cd4       1.0  0.29372960192925884  0.4767509799188646  0.9250428934241866  1.0000
  Sb  Sb1       1.0  0.8591226084689613  0.18451627302003765  0.46691327993425724  1.0000
  Sb  Sb2       1.0  0.1860733840182384  0.8861965314013176  0.5233079213867936  1.0000
  Sb  Sb3       1.0  0.9086272557679455  0.21374726761192625  0.04688449133236131  1.0000
  Sb  Sb4       1.0  0.17327728399170264  0.834819538935797  0.954770181038349  1.0000
  Sb  Sb5       1.0  0.49575533852179354  0.5212462744734998  0.35240813404682275  1.0000
  Sb  Sb6       1.0  0.5339561062678251  0.5630382224253717  0.6471218957624046  1.0000
  Sb  Sb7       1.0  0.49223326285406915  0.5443207845031068  0.15120573779945715  1.0000
  Sb  Sb8       1.0  0.4496341880092123  0.4161228589088615  0.83447905057563  1.0000
  Sb  Sb9       1.0  0.7799517876200045  0.3536957248216316  0.2679048565426508  1.0000
  Sb  Sb10      1.0  0.42371362468010937  0.788347969998994  0.7668095095737144  1.0000
  O   O1        1.0  0.4291303813884652  0.7435965664048803  0.23479609473114227  1.0000
  O   O2        1.0  0.9803383690563859  0.5772945694934892  0.7560922900193342  1.0000
data_image36
_chemical_formula_structural       Eu10Cd4Sb10O2
_chemical_formula_sum              "Eu10 Cd4 Sb10 O2"
_cell_length_a       11.24426501306804
_cell_length_b       11.24426501306804
_cell_length_c       14.850709
_cell_angle_alpha    90.0
_cell_angle_beta     90.0
_cell_angle_gamma    155.89846091665316

_space_group_name_H-M_alt    "P 1"
_space_group_IT_number       1

loop_
  _space_group_symop_operation_xyz
  'x, y, z'

loop_
  _atom_site_type_symbol
  _atom_site_label
  _atom_site_symmetry_multiplicity
  _atom_site_fract_x
  _atom_site_fract_y
  _atom_site_fract_z
  _atom_site_occupancy
  Eu  Eu1       1.0  0.8419345350015794  0.3297874349230027  0.8623533281327387  1.0000
  Eu  Eu2       1.0  0.251801298374493  0.7227527700862835  0.11886368453980105  1.0000
  Eu  Eu3       1.0  0.61232015803525  0.18484611607636722  0.628446547616244  1.0000
  Eu  Eu4       1.0  0.34024487304476375  0.8082331263646206  0.3714265264835778  1.0000
  Eu  Eu5       1.0  0.9326590336676788  0.17399912254876101  0.26189043853267785  1.0000
  Eu  Eu6       1.0  0.9962216247755625  0.7835374322881464  0.7742964670269153  1.0000
  Eu  Eu7       1.0  0.04894268219148919  0.8499861292251439  0.28212420662060383  1.0000
  Eu  Eu8       1.0  0.019227387265043916  0.19224672810625248  0.7165666179000817  1.0000
  Eu  Eu9       1.0  0.9704859694383823  0.9905482002207097  0.48964166408327353  1.0000
  Eu  Eu10      1.0  0.04025502551393894  0.01041480282878051  0.013661145583227443  1.0000
  Cd  Cd1       1.0  0.6046459943859995  0.4123593256596151  0.43909796883771307  1.0000
  Cd  Cd2       1.0  0.36770522529783994  0.6624525037666201  0.5845513218181202  1.0000
  Cd  Cd3       1.0  0.6971536921468169  0.39144825742212835  0.0870759235688219  1.0000
  Cd  Cd4       1.0  0.370705307772048  0.5558881546855718  0.9138991112085083  1.0000
  Sb  Sb1       1.0  0.8517568397270723  0.1729607456482151  0.4516513282447656  1.0000
  Sb  Sb2       1.0  0.05114241794405919  0.7959092371685283  0.5427168798567543  1.0000
  Sb  Sb3       1.0  0.9224129369870822  0.2178324120458959  0.022816843633025528  1.0000
  Sb  Sb4       1.0  0.1461206574528615  0.8195190267458884  0.9665571937126074  1.0000
  Sb  Sb5       1.0  0.3543485640538574  0.34249485895512627  0.33719364990052975  1.0000
  Sb  Sb6       1.0  0.44064404611273905  0.43832129922459057  0.6179665400638553  1.0000
  Sb  Sb7       1.0  0.5672780343611776  0.6473701519213295  0.14252967251358717  1.0000
  Sb  Sb8       1.0  0.5548142501016723  0.5221684839304864  0.838681365576785  1.0000
  Sb  Sb9       1.0  0.6673046642984035  0.25940946939387427  0.2593884596728311  1.0000
  Sb  Sb10      1.0  0.3282137859268112  0.6994920039826571  0.7679579098554012  1.0000
  O   O1        1.0  0.3287037170818936  0.6930019511989095  0.25448412198269416  1.0000
  O   O2        1.0  0.7617016799506561  0.4007855701414367  0.7812904016817313  1.0000
data_image37
_chemical_formula_structural       Eu10Cd4Sb10O2
_chemical_formula_sum              "Eu10 Cd4 Sb10 O2"
_cell_length_a       11.24426501306804
_cell_length_b       11.24426501306804
_cell_length_c       14.850709
_cell_angle_alpha    90.0
_cell_angle_beta     90.0
_cell_angle_gamma    155.89846091665316

_space_group_name_H-M_alt    "P 1"
_space_group_IT_number       1

loop_
  _space_group_symop_operation_xyz
  'x, y, z'

loop_
  _atom_site_type_symbol
  _atom_site_label
  _atom_site_symmetry_multiplicity
  _atom_site_fract_x
  _atom_site_fract_y
  _atom_site_fract_z
  _atom_site_occupancy
  Eu  Eu1       1.0  0.7578140876158423  0.2614722813593264  0.880589193277587  1.0000
  Eu  Eu2       1.0  0.22614308232603214  0.6695898723003822  0.10663168769688947  1.0000
  Eu  Eu3       1.0  0.6828657974449914  0.2529720368661258  0.6311227291849083  1.0000
  Eu  Eu4       1.0  0.26698754507968253  0.7724824049158953  0.3925957478318652  1.0000
  Eu  Eu5       1.0  0.9703942344528113  0.24215344116326734  0.27502560758120326  1.0000
  Eu  Eu6       1.0  0.11123304387803828  0.9056387146809769  0.7835997851968567  1.0000
  Eu  Eu7       1.0  0.04156137576513454  0.8236389080725457  0.2686753228200884  1.0000
  Eu  Eu8       1.0  0.9289407043446279  0.08764322052477297  0.7102966267089924  1.0000
  Eu  Eu9       1.0  0.8536921043119332  0.8383658975620775  0.4748794315271429  1.0000
  Eu  Eu10      1.0  0.11048527492840034  0.09215814399197238  0.9977883939687989  1.0000
  Cd  Cd1       1.0  0.5584143010170405  0.32870552191426883  0.4548545417167257  1.0000
  Cd  Cd2       1.0  0.3735979113926049  0.670738991319485  0.5669062922940092  1.0000
  Cd  Cd3       1.0  0.725356399369271  0.45394993654276455  0.09012591636906209  1.0000
  Cd  Cd4       1.0  0.3402648330289445  0.5596753741273713  0.9196531993736646  1.0000
  Sb  Sb1       1.0  0.9074634324010284  0.23411224728877733  0.47801491729568646  1.0000
  Sb  Sb2       1.0  0.14942717805800046  0.8660184420305975  0.5667012398491466  1.0000
  Sb  Sb3       1.0  0.8736800538143581  0.1416291096713197  0.028296977915499386  1.0000
  Sb  Sb4       1.0  0.2017676617930803  0.8976180239249593  0.9620482661061898  1.0000
  Sb  Sb5       1.0  0.3812882661016352  0.35544107910317224  0.30762377660154344  1.0000
  Sb  Sb6       1.0  0.4357334579800081  0.4183021391493229  0.6186975632486136  1.0000
  Sb  Sb7       1.0  0.5946848278655897  0.6705229929176425  0.16445174007014954  1.0000
  Sb  Sb8       1.0  0.514922860521944  0.500388758735194  0.8286290158812281  1.0000
  Sb  Sb9       1.0  0.609910584231095  0.21692482036966476  0.23783857540800582  1.0000
  Sb  Sb10      1.0  0.3870661207201507  0.7529328389838452  0.7443069233567089  1.0000
  O   O1        1.0  0.4697825346218922  0.8286794103697979  0.26463555607540135  1.0000
  O   O2        1.0  0.5859033478131243  0.2069887765571893  0.7784200744471667  1.0000
data_image38
_chemical_formula_structural       Eu10Cd4Sb10O2
_chemical_formula_sum              "Eu10 Cd4 Sb10 O2"
_cell_length_a       11.24426501306804
_cell_length_b       11.24426501306804
_cell_length_c       14.850709
_cell_angle_alpha    90.0
_cell_angle_beta     90.0
_cell_angle_gamma    155.89846091665316

_space_group_name_H-M_alt    "P 1"
_space_group_IT_number       1

loop_
  _space_group_symop_operation_xyz
  'x, y, z'

loop_
  _atom_site_type_symbol
  _atom_site_label
  _atom_site_symmetry_multiplicity
  _atom_site_fract_x
  _atom_site_fract_y
  _atom_site_fract_z
  _atom_site_occupancy
  Eu  Eu1       1.0  0.7547137267403822  0.28289135659218045  0.8969961813543724  1.0000
  Eu  Eu2       1.0  0.23738013641514907  0.683104977521599  0.1249533646348603  1.0000
  Eu  Eu3       1.0  0.818166483954237  0.35299152058369265  0.6461712065557684  1.0000
  Eu  Eu4       1.0  0.2148117131898707  0.7231800358105774  0.39919451653687327  1.0000
  Eu  Eu5       1.0  0.012056381577631559  0.2647273776474359  0.25847110080149976  1.0000
  Eu  Eu6       1.0  0.21244453401429206  0.01085628327850996  0.7644881202188127  1.0000
  Eu  Eu7       1.0  0.9870396024211768  0.7821693403897604  0.2526638256835118  1.0000
  Eu  Eu8       1.0  0.9322984355760066  0.0987398175082799  0.7481254919704647  1.0000
  Eu  Eu9       1.0  0.7445398999622199  0.761411864681806  0.45380162485373854  1.0000
  Eu  Eu10      1.0  0.1401934600945871  0.13349547796366906  0.00852490235629872  1.0000
  Cd  Cd1       1.0  0.5567797355595218  0.3135230860052058  0.4599839769643279  1.0000
  Cd  Cd2       1.0  0.35494493481338163  0.6518900865588485  0.5729114498518293  1.0000
  Cd  Cd3       1.0  0.6513215280511284  0.43210448188946116  0.07590907649387482  1.0000
  Cd  Cd4       1.0  0.4032477088739315  0.641906805041342  0.9249393566442773  1.0000
  Sb  Sb1       1.0  0.8075025721614908  0.10474413394810972  0.45106946408028464  1.0000
  Sb  Sb2       1.0  0.12888018324508294  0.8339815764408278  0.5606064866076707  1.0000
  Sb  Sb3       1.0  0.8147273251161246  0.09020904445353552  0.026081300833876733  1.0000
  Sb  Sb4       1.0  0.24323986032843714  0.910465932902072  0.9732706022948693  1.0000
  Sb  Sb5       1.0  0.38202781125313984  0.35857603105268865  0.3039838435270723  1.0000
  Sb  Sb6       1.0  0.4125533066021041  0.34778339215835047  0.6143882764791233  1.0000
  Sb  Sb7       1.0  0.6277392327519623  0.6806049186803805  0.14823124361154358  1.0000
  Sb  Sb8       1.0  0.5771243973646946  0.5734543439115919  0.8138916831943289  1.0000
  Sb  Sb9       1.0  0.5842864635076128  0.18468103697827895  0.2383716920506997  1.0000
  Sb  Sb10      1.0  0.37448784464030804  0.7492219318127455  0.7625888851756135  1.0000
  O   O1        1.0  0.25599827490360233  0.6401112566051476  0.2770785291055212  1.0000
  O   O2        1.0  0.8583943124171877  0.5230695809834837  0.7821625987034639  1.0000
data_image39
_chemical_formula_structural       Eu10Cd4Sb10O2
_chemical_formula_sum              "Eu10 Cd4 Sb10 O2"
_cell_length_a       11.24426501306804
_cell_length_b       11.24426501306804
_cell_length_c       14.850709
_cell_angle_alpha    90.0
_cell_angle_beta     90.0
_cell_angle_gamma    155.89846091665316

_space_group_name_H-M_alt    "P 1"
_space_group_IT_number       1

loop_
  _space_group_symop_operation_xyz
  'x, y, z'

loop_
  _atom_site_type_symbol
  _atom_site_label
  _atom_site_symmetry_multiplicity
  _atom_site_fract_x
  _atom_site_fract_y
  _atom_site_fract_z
  _atom_site_occupancy
  Eu  Eu1       1.0  0.8338469205794382  0.39607321211337654  0.8831529018637209  1.0000
  Eu  Eu2       1.0  0.1946240043099274  0.6436532970005077  0.13298816188161602  1.0000
  Eu  Eu3       1.0  0.861020508387558  0.35739352492102133  0.6737286964298445  1.0000
  Eu  Eu4       1.0  0.1274892277216911  0.6135171906222812  0.37340177235261274  1.0000
  Eu  Eu5       1.0  0.011689750895199413  0.2077506536061414  0.22369559829677738  1.0000
  Eu  Eu6       1.0  0.22279013442216455  0.9955714959279084  0.7842770601265122  1.0000
  Eu  Eu7       1.0  0.9456742361768002  0.765802685457781  0.25994878683211115  1.0000
  Eu  Eu8       1.0  0.0013231816250169892  0.18886890719225524  0.7312107052932508  1.0000
  Eu  Eu9       1.0  0.7760810404074545  0.8025622390331334  0.48257913178859385  1.0000
  Eu  Eu10      1.0  0.162515782352033  0.16962361912752547  0.014431157018840136  1.0000
  Cd  Cd1       1.0  0.6944116940280561  0.4263027055648304  0.4424915502985031  1.0000
  Cd  Cd2       1.0  0.3210799714631778  0.5986146488930728  0.5820503230386195  1.0000
  Cd  Cd3       1.0  0.6533517258767682  0.4310286866293869  0.062282096572794786  1.0000
  Cd  Cd4       1.0  0.40047841470805906  0.655386415329007  0.9020601884582535  1.0000
  Sb  Sb1       1.0  0.6913642007064492  0.9600323076254063  0.44362909903043735  1.0000
  Sb  Sb2       1.0  0.13564035652730405  0.852720771221559  0.5486111168875516  1.0000
  Sb  Sb3       1.0  0.9205972383606815  0.22671978370250703  0.028617967905759774  1.0000
  Sb  Sb4       1.0  0.14570569850592513  0.846321189414934  0.9989925583399455  1.0000
  Sb  Sb5       1.0  0.35632346816388333  0.3461905075456873  0.31907905933618524  1.0000
  Sb  Sb6       1.0  0.3421531163570234  0.25524158082639176  0.5960493819690058  1.0000
  Sb  Sb7       1.0  0.6109875125495994  0.6482875562286188  0.1361809591323537  1.0000
  Sb  Sb8       1.0  0.574546219194035  0.58458080390175  0.8381422253455123  1.0000
  Sb  Sb9       1.0  0.5606614572717465  0.18392697207021802  0.2602948623912855  1.0000
  Sb  Sb10      1.0  0.4220767302873604  0.8143447155759148  0.7607622613160797  1.0000
  O   O1        1.0  0.2505450865452258  0.597746989443445  0.25956038578721397  1.0000
  O   O2        1.0  0.7994797657896768  0.4846051851027267  0.7690961015270243  1.0000
data_image40
_chemical_formula_structural       Eu10Cd4Sb10O2
_chemical_formula_sum              "Eu10 Cd4 Sb10 O2"
_cell_length_a       11.24426501306804
_cell_length_b       11.24426501306804
_cell_length_c       14.850709
_cell_angle_alpha    90.0
_cell_angle_beta     90.0
_cell_angle_gamma    155.89846091665316

_space_group_name_H-M_alt    "P 1"
_space_group_IT_number       1

loop_
  _space_group_symop_operation_xyz
  'x, y, z'

loop_
  _atom_site_type_symbol
  _atom_site_label
  _atom_site_symmetry_multiplicity
  _atom_site_fract_x
  _atom_site_fract_y
  _atom_site_fract_z
  _atom_site_occupancy
  Eu  Eu1       1.0  0.7625276420238647  0.2751052017929731  0.8830965116484085  1.0000
  Eu  Eu2       1.0  0.2464001589386444  0.7352518564957554  0.13354745771286003  1.0000
  Eu  Eu3       1.0  0.8212398681949848  0.372057277850488  0.6650578661749657  1.0000
  Eu  Eu4       1.0  0.10550724541778049  0.5777461081828772  0.36798613163205984  1.0000
  Eu  Eu5       1.0  0.9718459437981544  0.18911515728911335  0.22309917545512015  1.0000
  Eu  Eu6       1.0  0.22942309917102885  0.9961361264098781  0.7886270016614652  1.0000
  Eu  Eu7       1.0  0.8979120280025612  0.708986230262215  0.2606942850078593  1.0000
  Eu  Eu8       1.0  0.0786455957396992  0.2325851878414433  0.7257232096992038  1.0000
  Eu  Eu9       1.0  0.8354917101349504  0.8318895609400762  0.5004902880559277  1.0000
  Eu  Eu10      1.0  0.15066861060143782  0.16992473098375543  0.9819355110434365  1.0000
  Cd  Cd1       1.0  0.5976070740798007  0.32362594750089296  0.4129993678554379  1.0000
  Cd  Cd2       1.0  0.3350392622243299  0.6079000483549061  0.5518091629103498  1.0000
  Cd  Cd3       1.0  0.6521000872316252  0.4418198612508477  0.06592334562932899  1.0000
  Cd  Cd4       1.0  0.5035303114562476  0.7559010659018102  0.9351152553620616  1.0000
  Sb  Sb1       1.0  0.7530570378887823  0.08391894780318122  0.4337139862704852  1.0000
  Sb  Sb2       1.0  0.11133497759536981  0.8081413327558511  0.5574546186705414  1.0000
  Sb  Sb3       1.0  0.9251001109390818  0.25108585000735206  0.002914160639625701  1.0000
  Sb  Sb4       1.0  0.21625377660906747  0.8995855949905027  0.002461550040552485  1.0000
  Sb  Sb5       1.0  0.33449919278717966  0.29138968739481036  0.3664209727321221  1.0000
  Sb  Sb6       1.0  0.3633435736906121  0.27138983197422945  0.6241701056112188  1.0000
  Sb  Sb7       1.0  0.5376027742608848  0.5739618930546125  0.17684624119791967  1.0000
  Sb  Sb8       1.0  0.5965412565526694  0.6157856743822178  0.8353597721922307  1.0000
  Sb  Sb9       1.0  0.550269461889743  0.18564830946427405  0.24202358397651844  1.0000
  Sb  Sb10      1.0  0.39537678284004824  0.7777382444805184  0.7456986548320211  1.0000
  O   O1        1.0  0.1948304197946487  0.5721276636994169  0.25062878687520973  1.0000
  O   O2        1.0  0.8961341394239571  0.5708407616836918  0.7866706754463143  1.0000
data_image41
_chemical_formula_structural       Eu10Cd4Sb10O2
_chemical_formula_sum              "Eu10 Cd4 Sb10 O2"
_cell_length_a       11.24426501306804
_cell_length_b       11.24426501306804
_cell_length_c       14.850709
_cell_angle_alpha    90.0
_cell_angle_beta     90.0
_cell_angle_gamma    155.89846091665316

_space_group_name_H-M_alt    "P 1"
_space_group_IT_number       1

loop_
  _space_group_symop_operation_xyz
  'x, y, z'

loop_
  _atom_site_type_symbol
  _atom_site_label
  _atom_site_symmetry_multiplicity
  _atom_site_fract_x
  _atom_site_fract_y
  _atom_site_fract_z
  _atom_site_occupancy
  Eu  Eu1       1.0  0.760424643033112  0.28273158666657516  0.8807604482780494  1.0000
  Eu  Eu2       1.0  0.2210028087555321  0.7091488993175237  0.12058689939243832  1.0000
  Eu  Eu3       1.0  0.7237061510523576  0.3038529463635668  0.6821274502715234  1.0000
  Eu  Eu4       1.0  0.12947815246299813  0.6087108545819245  0.3924072134539813  1.0000
  Eu  Eu5       1.0  0.9480079464761169  0.19987857651944074  0.21434518776467612  1.0000
  Eu  Eu6       1.0  0.15358226185904034  0.9187061108569367  0.7947019268441627  1.0000
  Eu  Eu7       1.0  0.9000559767891898  0.7241881529004949  0.26660383853690817  1.0000
  Eu  Eu8       1.0  0.10082740628764486  0.2474267712972225  0.7257965007067112  1.0000
  Eu  Eu9       1.0  0.8759019925117909  0.8379403028626424  0.5145539726055117  1.0000
  Eu  Eu10      1.0  0.08926058143617503  0.0872578821211408  0.9796127874764293  1.0000
  Cd  Cd1       1.0  0.5469025299850276  0.24866533475941566  0.42244090260137396  1.0000
  Cd  Cd2       1.0  0.3447453354837999  0.6120547991796823  0.5556853652791445  1.0000
  Cd  Cd3       1.0  0.6863938927441079  0.5179969751018475  0.05443733341209512  1.0000
  Cd  Cd4       1.0  0.47812308933326886  0.7118558842954678  0.9169477325689521  1.0000
  Sb  Sb1       1.0  0.7142533631625679  0.02666172896454433  0.42871058836184217  1.0000
  Sb  Sb2       1.0  0.2020917615648125  0.8797209811600222  0.548828735928115  1.0000
  Sb  Sb3       1.0  0.03905491162008046  0.33452791204482235  0.017942615247950825  1.0000
  Sb  Sb4       1.0  0.31233967383488814  0.9827455501410883  0.9905038938868979  1.0000
  Sb  Sb5       1.0  0.32421245413130717  0.30300230450169324  0.3585795772057756  1.0000
  Sb  Sb6       1.0  0.50945646929771  0.42840550478872497  0.6559639525070167  1.0000
  Sb  Sb7       1.0  0.4965005534859942  0.5355171310026811  0.18540205435134435  1.0000
  Sb  Sb8       1.0  0.650212767635761  0.6493745279665956  0.8234044677435646  1.0000
  Sb  Sb9       1.0  0.5253325610743119  0.19537123254362546  0.21815918231059298  1.0000
  Sb  Sb10      1.0  0.3015989723700364  0.6824394890234343  0.7194975339157441  1.0000
  O   O1        1.0  0.21542931382423794  0.6049937378817574  0.25355962745231264  1.0000
  O   O2        1.0  0.7542928826953026  0.43821779119030174  0.8037883023384794  1.0000
data_image42
_chemical_formula_structural       Eu10Cd4Sb10O2
_chemical_formula_sum              "Eu10 Cd4 Sb10 O2"
_cell_length_a       11.24426501306804
_cell_length_b       11.24426501306804
_cell_length_c       14.850709
_cell_angle_alpha    90.0
_cell_angle_beta     90.0
_cell_angle_gamma    155.89846091665316

_space_group_name_H-M_alt    "P 1"
_space_group_IT_number       1

loop_
  _space_group_symop_operation_xyz
  'x, y, z'

loop_
  _atom_site_type_symbol
  _atom_site_label
  _atom_site_symmetry_multiplicity
  _atom_site_fract_x
  _atom_site_fract_y
  _atom_site_fract_z
  _atom_site_occupancy
  Eu  Eu1       1.0  0.8081090836360414  0.31683084474923545  0.9019464487036953  1.0000
  Eu  Eu2       1.0  0.2592904006669784  0.7542691843366024  0.13817693798761305  1.0000
  Eu  Eu3       1.0  0.6394847498313955  0.20662582701044174  0.6675204955842091  1.0000
  Eu  Eu4       1.0  0.1328506388901337  0.6142819873518177  0.3943579701095161  1.0000
  Eu  Eu5       1.0  0.839485281367106  0.09550933589320214  0.23452683145450784  1.0000
  Eu  Eu6       1.0  0.1115943472206431  0.8712132359082018  0.7794397558580436  1.0000
  Eu  Eu7       1.0  0.9872989762595947  0.8468659502485403  0.23690535414525138  1.0000
  Eu  Eu8       1.0  0.04212126185978926  0.1900096103731502  0.7431239445202533  1.0000
  Eu  Eu9       1.0  0.8545343277790884  0.8228631425359281  0.5022673048311375  1.0000
  Eu  Eu10      1.0  0.02496222796430925  0.04153161547000622  0.9956975453605778  1.0000
  Cd  Cd1       1.0  0.6706234856965224  0.35209324528730324  0.4073303392866883  1.0000
  Cd  Cd2       1.0  0.2457806210306782  0.4767667128398372  0.5346446208771342  1.0000
  Cd  Cd3       1.0  0.757488587458792  0.5857828018428786  0.06080827038709035  1.0000
  Cd  Cd4       1.0  0.5188214625623252  0.7578578632864351  0.9141725690939653  1.0000
  Sb  Sb1       1.0  0.8076302570386993  0.05603046278941772  0.4385514571655939  1.0000
  Sb  Sb2       1.0  0.14861735182548463  0.8351878766925883  0.5426542039369628  1.0000
  Sb  Sb3       1.0  0.021827125181932416  0.28733818380605214  0.029876066432348452  1.0000
  Sb  Sb4       1.0  0.32393705228082287  0.06700604334705851  0.9843442258248283  1.0000
  Sb  Sb5       1.0  0.26500206111243857  0.27646989747366235  0.3529922017970505  1.0000
  Sb  Sb6       1.0  0.5380644323352171  0.42580931829905083  0.6793827440102005  1.0000
  Sb  Sb7       1.0  0.4905083135790112  0.5365434627779199  0.15884273678383254  1.0000
  Sb  Sb8       1.0  0.6274635185932125  0.6364498526728617  0.8235715259190075  1.0000
  Sb  Sb9       1.0  0.6291254710903271  0.2946781026721518  0.21041949122086137  1.0000
  Sb  Sb10      1.0  0.3550170009942953  0.7347819511554264  0.7317286374162151  1.0000
  O   O1        1.0  0.24737380292204803  0.6384171104560036  0.26295224920096616  1.0000
  O   O2        1.0  0.6803386672937461  0.3451516063469882  0.7841953127300607  1.0000
data_image43
_chemical_formula_structural       Eu10Cd4Sb10O2
_chemical_formula_sum              "Eu10 Cd4 Sb10 O2"
_cell_length_a       11.24426501306804
_cell_length_b       11.24426501306804
_cell_length_c       14.850709
_cell_angle_alpha    90.0
_cell_angle_beta     90.0
_cell_angle_gamma    155.89846091665316

_space_group_name_H-M_alt    "P 1"
_space_group_IT_number       1

loop_
  _space_group_symop_operation_xyz
  'x, y, z'

loop_
  _atom_site_type_symbol
  _atom_site_label
  _atom_site_symmetry_multiplicity
  _atom_site_fract_x
  _atom_site_fract_y
  _atom_site_fract_z
  _atom_site_occupancy
  Eu  Eu1       1.0  0.8806096450392845  0.3852835562524962  0.9215850450899526  1.0000
  Eu  Eu2       1.0  0.32291246219389563  0.8174368631585978  0.15482358893608597  1.0000
  Eu  Eu3       1.0  0.7480621085603347  0.29649217204488415  0.6391718204185021  1.0000
  Eu  Eu4       1.0  0.1786530814775353  0.6227900529932634  0.40779964412396186  1.0000
  Eu  Eu5       1.0  0.7582266546743576  0.0065111474141459885  0.24148066379720595  1.0000
  Eu  Eu6       1.0  0.11634717296333454  0.8618637816058266  0.7691126125041752  1.0000
  Eu  Eu7       1.0  0.04338877882060463  0.9049548711649164  0.22695539186245575  1.0000
  Eu  Eu8       1.0  0.9595209528064256  0.1352370576995045  0.7592587339445999  1.0000
  Eu  Eu9       1.0  0.8260282629837827  0.8096851439656603  0.466043296010888  1.0000
  Eu  Eu10      1.0  0.08657601013464664  0.10719083254597223  0.9702361642673031  1.0000
  Cd  Cd1       1.0  0.5539546563085731  0.23806167828537506  0.4337365043852114  1.0000
  Cd  Cd2       1.0  0.27702430199545475  0.5303368407248221  0.5761082111361386  1.0000
  Cd  Cd3       1.0  0.7358025993718952  0.5345593360632214  0.051327550042887395  1.0000
  Cd  Cd4       1.0  0.4455523654947985  0.7454563136796057  0.9360402389646645  1.0000
  Sb  Sb1       1.0  0.8032695747981858  0.04787719226153689  0.44156848840986396  1.0000
  Sb  Sb2       1.0  0.10201372314762351  0.8075712462337986  0.5397675201313199  1.0000
  Sb  Sb3       1.0  0.9661093897708205  0.2634216887069593  0.047611971359220316  1.0000
  Sb  Sb4       1.0  0.299792992679194  0.016370717481164032  0.9656820690504373  1.0000
  Sb  Sb5       1.0  0.31958042789719693  0.3936053572384123  0.3439297570850954  1.0000
  Sb  Sb6       1.0  0.4609803244932576  0.343690843387943  0.6544736526831327  1.0000
  Sb  Sb7       1.0  0.43860977645786403  0.4883417856043744  0.13347940452870397  1.0000
  Sb  Sb8       1.0  0.5991555410644303  0.5837402576920762  0.8312086942587581  1.0000
  Sb  Sb9       1.0  0.7658459361518246  0.3783395233720463  0.2260594594362532  1.0000
  Sb  Sb10      1.0  0.31976458929613494  0.6887572367293133  0.7414539933362471  1.0000
  O   O1        1.0  0.3309840876407691  0.7124644630166097  0.2588187755634831  1.0000
  O   O2        1.0  0.7596786173566483  0.3962823159493835  0.7896645534595004  1.0000
data_image44
_chemical_formula_structural       Eu10Cd4Sb10O2
_chemical_formula_sum              "Eu10 Cd4 Sb10 O2"
_cell_length_a       11.24426501306804
_cell_length_b       11.24426501306804
_cell_length_c       14.850709
_cell_angle_alpha    90.0
_cell_angle_beta     90.0
_cell_angle_gamma    155.89846091665316

_space_group_name_H-M_alt    "P 1"
_space_group_IT_number       1

loop_
  _space_group_symop_operation_xyz
  'x, y, z'

loop_
  _atom_site_type_symbol
  _atom_site_label
  _atom_site_symmetry_multiplicity
  _atom_site_fract_x
  _atom_site_fract_y
  _atom_site_fract_z
  _atom_site_occupancy
  Eu  Eu1       1.0  0.8680230852548416  0.4214530229886051  0.9059853479987017  1.0000
  Eu  Eu2       1.0  0.3639139497651545  0.8559161365926073  0.1446396847649132  1.0000
  Eu  Eu3       1.0  0.7123699657206336  0.2528280781061183  0.626761503708881  1.0000
  Eu  Eu4       1.0  0.18337138734950528  0.624675317603111  0.40050036810480594  1.0000
  Eu  Eu5       1.0  0.8012722723226094  0.022343521069295262  0.24994801538905528  1.0000
  Eu  Eu6       1.0  0.1354259399192778  0.8691545185955171  0.7652767127956386  1.0000
  Eu  Eu7       1.0  0.11520819289601424  0.9599919039134837  0.2089104834333813  1.0000
  Eu  Eu8       1.0  0.9448287967235554  0.10087620678242136  0.7724290311575038  1.0000
  Eu  Eu9       1.0  0.8167300594428135  0.7739824931318604  0.46643958742207847  1.0000
  Eu  Eu10      1.0  0.09879473696015402  0.11794323457164353  0.965354249094779  1.0000
  Cd  Cd1       1.0  0.5456837241330341  0.24685940544962015  0.4458691345962957  1.0000
  Cd  Cd2       1.0  0.26343841997192197  0.5051455390650256  0.5758355028627661  1.0000
  Cd  Cd3       1.0  0.6441808562065388  0.4659391462697251  0.03737195177877549  1.0000
  Cd  Cd4       1.0  0.45053334469594475  0.7333847665704328  0.9205789741506258  1.0000
  Sb  Sb1       1.0  0.806142026055645  0.07116351556678452  0.4820904895915811  1.0000
  Sb  Sb2       1.0  0.04035768196823577  0.7827395472446151  0.5778386586396727  1.0000
  Sb  Sb3       1.0  0.0024324739771088844  0.3337472794609993  0.0525929080560389  1.0000
  Sb  Sb4       1.0  0.21944275184842535  0.9116274734543669  0.9616410014249959  1.0000
  Sb  Sb5       1.0  0.3234790239016462  0.4223907331107355  0.33746292994141397  1.0000
  Sb  Sb6       1.0  0.45255454365890296  0.3476505825216812  0.6314890650189685  1.0000
  Sb  Sb7       1.0  0.4609243902271491  0.5097556977910793  0.11907951835959145  1.0000
  Sb  Sb8       1.0  0.6110636832255855  0.5949570534313964  0.8202515167408997  1.0000
  Sb  Sb9       1.0  0.7115264800009102  0.34017137800939234  0.27365349458049043  1.0000
  Sb  Sb10      1.0  0.4200080806501691  0.7514223464998703  0.7507564347788597  1.0000
  O   O1        1.0  0.33802918496545475  0.7022971661655495  0.24873347877179747  1.0000
  O   O2        1.0  0.5852252172582986  0.18688360522556854  0.7844932023620537  1.0000
data_image45
_chemical_formula_structural       Eu10Cd4Sb10O2
_chemical_formula_sum              "Eu10 Cd4 Sb10 O2"
_cell_length_a       11.24426501306804
_cell_length_b       11.24426501306804
_cell_length_c       14.850709
_cell_angle_alpha    90.0
_cell_angle_beta     90.0
_cell_angle_gamma    155.89846091665316

_space_group_name_H-M_alt    "P 1"
_space_group_IT_number       1

loop_
  _space_group_symop_operation_xyz
  'x, y, z'

loop_
  _atom_site_type_symbol
  _atom_site_label
  _atom_site_symmetry_multiplicity
  _atom_site_fract_x
  _atom_site_fract_y
  _atom_site_fract_z
  _atom_site_occupancy
  Eu  Eu1       1.0  0.7398502035024541  0.28799325690926353  0.8732829727368127  1.0000
  Eu  Eu2       1.0  0.3474301929414292  0.8559027114371672  0.16082286836307613  1.0000
  Eu  Eu3       1.0  0.6440474906423194  0.1451361624414303  0.6265672794656691  1.0000
  Eu  Eu4       1.0  0.21646254948618454  0.6755926196246971  0.390120856702789  1.0000
  Eu  Eu5       1.0  0.8132110063804573  0.0803354504641146  0.23055290643808807  1.0000
  Eu  Eu6       1.0  0.1657505677324623  0.8707125530584223  0.7797088413299298  1.0000
  Eu  Eu7       1.0  0.22870861312482776  0.06450993941358552  0.19850359431338668  1.0000
  Eu  Eu8       1.0  0.03430715613432156  0.1786210376451376  0.744960646179606  1.0000
  Eu  Eu9       1.0  0.8307038794566792  0.8121285921525889  0.45129755503792385  1.0000
  Eu  Eu10      1.0  0.10273283630601446  0.13710018092297674  0.9860470342566153  1.0000
  Cd  Cd1       1.0  0.5521493227518184  0.23383278085282203  0.46655911237747383  1.0000
  Cd  Cd2       1.0  0.2902673936255395  0.4799328883104237  0.5805948249695589  1.0000
  Cd  Cd3       1.0  0.6429541258044764  0.4733816295171541  0.04115050234084995  1.0000
  Cd  Cd4       1.0  0.497578319695455  0.7923411140008976  0.9345848714003485  1.0000
  Sb  Sb1       1.0  0.7226391145778674  0.999229442032909  0.4879027699233881  1.0000
  Sb  Sb2       1.0  0.9824181515727227  0.7308521237858494  0.5540582256413968  1.0000
  Sb  Sb3       1.0  0.0025984583153608742  0.29999776710356146  0.04413540008982975  1.0000
  Sb  Sb4       1.0  0.1810254122567294  0.8888095941159196  0.008816987031313284  1.0000
  Sb  Sb5       1.0  0.20466210238626803  0.2730354715504025  0.3590955987191302  1.0000
  Sb  Sb6       1.0  0.4443174573334092  0.38081909822745424  0.6336920521436623  1.0000
  Sb  Sb7       1.0  0.528915757966098  0.6040039632308762  0.14161974818904904  1.0000
  Sb  Sb8       1.0  0.7238476508989575  0.6500079721665427  0.7996252333376872  1.0000
  Sb  Sb9       1.0  0.7348948746143745  0.375059870076385  0.2747921708238757  1.0000
  Sb  Sb10      1.0  0.3382849170820111  0.6878844761236353  0.7487811824681604  1.0000
  O   O1        1.0  0.2602793719683084  0.6290935141657011  0.23685397535913796  1.0000
  O   O2        1.0  0.7161164878428368  0.3726361240656159  0.7566370684112642  1.0000
data_image46
_chemical_formula_structural       Eu10Cd4Sb10O2
_chemical_formula_sum              "Eu10 Cd4 Sb10 O2"
_cell_length_a       11.24426501306804
_cell_length_b       11.24426501306804
_cell_length_c       14.850709
_cell_angle_alpha    90.0
_cell_angle_beta     90.0
_cell_angle_gamma    155.89846091665316

_space_group_name_H-M_alt    "P 1"
_space_group_IT_number       1

loop_
  _space_group_symop_operation_xyz
  'x, y, z'

loop_
  _atom_site_type_symbol
  _atom_site_label
  _atom_site_symmetry_multiplicity
  _atom_site_fract_x
  _atom_site_fract_y
  _atom_site_fract_z
  _atom_site_occupancy
  Eu  Eu1       1.0  0.807858887409742  0.32749323005858694  0.8838755341804685  1.0000
  Eu  Eu2       1.0  0.37770804297912125  0.8844090240485004  0.15130608383151609  1.0000
  Eu  Eu3       1.0  0.6636081360112737  0.1430770956010511  0.6424017454101941  1.0000
  Eu  Eu4       1.0  0.21669456060415532  0.6981450472976499  0.4065458576501425  1.0000
  Eu  Eu5       1.0  0.8706431975889578  0.14711980931121205  0.23966183221734091  1.0000
  Eu  Eu6       1.0  0.14037793375765412  0.8412283377434481  0.7555290925367962  1.0000
  Eu  Eu7       1.0  0.2441665648221779  0.0856414790099218  0.19373662709100067  1.0000
  Eu  Eu8       1.0  0.03906181424383148  0.19003918718799465  0.7454268709070558  1.0000
  Eu  Eu9       1.0  0.7204070489821177  0.7329722414319493  0.46671320750808754  1.0000
  Eu  Eu10      1.0  0.06094408059323571  0.10984232681560697  0.9824586518847493  1.0000
  Cd  Cd1       1.0  0.5085145057323066  0.22560944478279502  0.4682776387611465  1.0000
  Cd  Cd2       1.0  0.32872169073245466  0.5182035326991783  0.5768288524146368  1.0000
  Cd  Cd3       1.0  0.64051945068659  0.4873680021705466  0.04092805225860837  1.0000
  Cd  Cd4       1.0  0.44922116474064344  0.7017449825520954  0.9278784293995691  1.0000
  Sb  Sb1       1.0  0.7868771862411851  0.08867333173509659  0.491853538311442  1.0000
  Sb  Sb2       1.0  0.05624041279569957  0.7596576949900329  0.5576278375424684  1.0000
  Sb  Sb3       1.0  0.9192886907159138  0.2441620272552358  0.026779721715010123  1.0000
  Sb  Sb4       1.0  0.15764596111269402  0.8344147139232598  0.005403400586197815  1.0000
  Sb  Sb5       1.0  0.2770317838303344  0.3433464200765258  0.31386382966976967  1.0000
  Sb  Sb6       1.0  0.474590326116881  0.3956709718998294  0.6182009328698614  1.0000
  Sb  Sb7       1.0  0.5182992938136343  0.5705991873161591  0.15725579756130942  1.0000
  Sb  Sb8       1.0  0.6355868575277671  0.5753513662173483  0.8014673343900488  1.0000
  Sb  Sb9       1.0  0.7230980417348298  0.35280871568240624  0.28754441346348547  1.0000
  Sb  Sb10      1.0  0.3324706635596033  0.6982973233448904  0.766958787377544  1.0000
  O   O1        1.0  0.45405801977818777  0.8099181280405219  0.24658132344258424  1.0000
  O   O2        1.0  0.6245708564956195  0.24078965353049286  0.7616641547008786  1.0000
data_image47
_chemical_formula_structural       Eu10Cd4Sb10O2
_chemical_formula_sum              "Eu10 Cd4 Sb10 O2"
_cell_length_a       11.24426501306804
_cell_length_b       11.24426501306804
_cell_length_c       14.850709
_cell_angle_alpha    90.0
_cell_angle_beta     90.0
_cell_angle_gamma    155.89846091665316

_space_group_name_H-M_alt    "P 1"
_space_group_IT_number       1

loop_
  _space_group_symop_operation_xyz
  'x, y, z'

loop_
  _atom_site_type_symbol
  _atom_site_label
  _atom_site_symmetry_multiplicity
  _atom_site_fract_x
  _atom_site_fract_y
  _atom_site_fract_z
  _atom_site_occupancy
  Eu  Eu1       1.0  0.7964826626236712  0.282977995748654  0.884815870152294  1.0000
  Eu  Eu2       1.0  0.3729453742640799  0.850862924053664  0.13172383774369018  1.0000
  Eu  Eu3       1.0  0.696592979755138  0.1948432556942924  0.6448537033321536  1.0000
  Eu  Eu4       1.0  0.29608283139743174  0.7942878601056498  0.414391389606204  1.0000
  Eu  Eu5       1.0  0.8204792782435797  0.08857967528047127  0.2512074013251754  1.0000
  Eu  Eu6       1.0  0.19606414527185675  0.9015376008099611  0.7864268821500581  1.0000
  Eu  Eu7       1.0  0.16692074296514542  0.03206278691809428  0.19626385206765623  1.0000
  Eu  Eu8       1.0  0.9525979413317046  0.09960074551340269  0.744844401697558  1.0000
  Eu  Eu9       1.0  0.8222999367775364  0.8252248826678119  0.46608230612972174  1.0000
  Eu  Eu10      1.0  0.027160031285255317  0.06635620326468998  0.9841687940131143  1.0000
  Cd  Cd1       1.0  0.3999477303907482  0.1568445351681298  0.45953753696407057  1.0000
  Cd  Cd2       1.0  0.4349218917994067  0.6722451085232385  0.5679465565044992  1.0000
  Cd  Cd3       1.0  0.635741062973226  0.4348288921040647  0.001848603547222567  1.0000
  Cd  Cd4       1.0  0.5022691698298907  0.7428444826693229  0.9491822015195615  1.0000
  Sb  Sb1       1.0  0.8281470380539987  0.13862898847955255  0.4762441947585708  1.0000
  Sb  Sb2       1.0  0.04145038931681096  0.7041335028074649  0.5710770065441458  1.0000
  Sb  Sb3       1.0  0.9239960747851269  0.2561879471975  0.062019535852639425  1.0000
  Sb  Sb4       1.0  0.19627811579879284  0.8930126295561095  0.9628338258401375  1.0000
  Sb  Sb5       1.0  0.22665095441160418  0.2802122122013782  0.3246357147533793  1.0000
  Sb  Sb6       1.0  0.525227409154725  0.42792079504873626  0.6185735514531047  1.0000
  Sb  Sb7       1.0  0.5778842643767365  0.6117068987289334  0.11971052235385118  1.0000
  Sb  Sb8       1.0  0.5154156161778718  0.5048488444495149  0.822464555967138  1.0000
  Sb  Sb9       1.0  0.7427263977115697  0.3925951196162803  0.2964147041683037  1.0000
  Sb  Sb10      1.0  0.2820279792000426  0.6399109478944318  0.7562435901185212  1.0000
  O   O1        1.0  0.19061623467195163  0.5757393700959793  0.25509926965651264  1.0000
  O   O2        1.0  0.6513734943175649  0.2554382732562246  0.7702573964240127  1.0000
data_image48
_chemical_formula_structural       Eu10Cd4Sb10O2
_chemical_formula_sum              "Eu10 Cd4 Sb10 O2"
_cell_length_a       11.24426501306804
_cell_length_b       11.24426501306804
_cell_length_c       14.850709
_cell_angle_alpha    90.0
_cell_angle_beta     90.0
_cell_angle_gamma    155.89846091665316

_space_group_name_H-M_alt    "P 1"
_space_group_IT_number       1

loop_
  _space_group_symop_operation_xyz
  'x, y, z'

loop_
  _atom_site_type_symbol
  _atom_site_label
  _atom_site_symmetry_multiplicity
  _atom_site_fract_x
  _atom_site_fract_y
  _atom_site_fract_z
  _atom_site_occupancy
  Eu  Eu1       1.0  0.7847203681107527  0.2277620599240554  0.8867910681025121  1.0000
  Eu  Eu2       1.0  0.35899924620336987  0.8566502696593767  0.11161323541580145  1.0000
  Eu  Eu3       1.0  0.6470561374525277  0.18831237935147596  0.6462487943798477  1.0000
  Eu  Eu4       1.0  0.3325956591735986  0.8314016822561835  0.37695480176258883  1.0000
  Eu  Eu5       1.0  0.7732168571296142  0.028297906993627796  0.2766124018104481  1.0000
  Eu  Eu6       1.0  0.14267125146270396  0.8580261358864867  0.787906678788215  1.0000
  Eu  Eu7       1.0  0.13010863243598803  0.971341150666352  0.2005746316220602  1.0000
  Eu  Eu8       1.0  0.9040089792236822  0.036409861428512526  0.741339254786475  1.0000
  Eu  Eu9       1.0  0.8151590451360031  0.8275178973686115  0.48323350004365123  1.0000
  Eu  Eu10      1.0  0.07057657501216434  0.10512845430922944  0.9734989804964779  1.0000
  Cd  Cd1       1.0  0.44207945168677604  0.21851799368002262  0.4533767722230705  1.0000
  Cd  Cd2       1.0  0.41515274711287165  0.6506365127995726  0.5594528798487715  1.0000
  Cd  Cd3       1.0  0.6618409502269517  0.4708534486292169  0.99134262068787  1.0000
  Cd  Cd4       1.0  0.46830653922139254  0.7298295142261169  0.9431079628426774  1.0000
  Sb  Sb1       1.0  0.9342472504339877  0.21685660804309434  0.4634967023870123  1.0000
  Sb  Sb2       1.0  0.06969773167281826  0.7187605187321569  0.5641350045567989  1.0000
  Sb  Sb3       1.0  0.9565246361009313  0.2883159997776952  0.06774348556697495  1.0000
  Sb  Sb4       1.0  0.2277776510706746  0.953887763892187  0.011790126849253735  1.0000
  Sb  Sb5       1.0  0.2766104161171007  0.3200964565236311  0.3363683240738801  1.0000
  Sb  Sb6       1.0  0.5930058780697716  0.4590202731602423  0.6365467789594808  1.0000
  Sb  Sb7       1.0  0.5608102867406171  0.572188281809274  0.11023372945028462  1.0000
  Sb  Sb8       1.0  0.46612201224374816  0.4679789618440719  0.8209666320734132  1.0000
  Sb  Sb9       1.0  0.7048478177837247  0.40971211988174483  0.3043379197702009  1.0000
  Sb  Sb10      1.0  0.27029160825951304  0.6113135901826963  0.7427093524720764  1.0000
  O   O1        1.0  0.2721291577754871  0.6914580074226727  0.261785708668416  1.0000
  O   O2        1.0  0.7363424636469759  0.35521972213628417  0.8094324652827507  1.0000
data_image49
_chemical_formula_structural       Eu10Cd4Sb10O2
_chemical_formula_sum              "Eu10 Cd4 Sb10 O2"
_cell_length_a       11.24426501306804
_cell_length_b       11.24426501306804
_cell_length_c       14.850709
_cell_angle_alpha    90.0
_cell_angle_beta     90.0
_cell_angle_gamma    155.89846091665316

_space_group_name_H-M_alt    "P 1"
_space_group_IT_number       1

loop_
  _space_group_symop_operation_xyz
  'x, y, z'

loop_
  _atom_site_type_symbol
  _atom_site_label
  _atom_site_symmetry_multiplicity
  _atom_site_fract_x
  _atom_site_fract_y
  _atom_site_fract_z
  _atom_site_occupancy
  Eu  Eu1       1.0  0.7523796985412109  0.19940079193140967  0.885614366153523  1.0000
  Eu  Eu2       1.0  0.3772617170474147  0.8694261024130675  0.09263244676441254  1.0000
  Eu  Eu3       1.0  0.5966272227564373  0.11072756249530528  0.6675322296256144  1.0000
  Eu  Eu4       1.0  0.321156417722129  0.8611401028675946  0.37070564850721643  1.0000
  Eu  Eu5       1.0  0.7984084149318659  0.07207899884046141  0.2702593923158714  1.0000
  Eu  Eu6       1.0  0.07929715582535461  0.7501063651601249  0.8111248122574269  1.0000
  Eu  Eu7       1.0  0.10309176624668476  0.9376046178909293  0.2092362339529548  1.0000
  Eu  Eu8       1.0  0.8662229004321177  0.9981482962762736  0.7223852070440638  1.0000
  Eu  Eu9       1.0  0.8637982227713271  0.8677317685795275  0.4849041623200537  1.0000
  Eu  Eu10      1.0  0.012495924819221058  0.055572677872157576  0.9705745646596013  1.0000
  Cd  Cd1       1.0  0.5088118395321319  0.3032311099616921  0.4647663943604579  1.0000
  Cd  Cd2       1.0  0.48147300332513226  0.7891654910642064  0.5636942660482758  1.0000
  Cd  Cd3       1.0  0.7103175633437051  0.5403213732152666  0.9551837527854231  1.0000
  Cd  Cd4       1.0  0.4058883981457665  0.6600792264332148  0.9409115260051667  1.0000
  Sb  Sb1       1.0  0.016654681110627623  0.28018801010636774  0.45191598685197637  1.0000
  Sb  Sb2       1.0  0.028534719669948715  0.706562904812102  0.5606419133591322  1.0000
  Sb  Sb3       1.0  0.0024944924282963576  0.28849638084082485  0.07422395421737304  1.0000
  Sb  Sb4       1.0  0.2499255658686968  0.9873038821582055  0.997902171842639  1.0000
  Sb  Sb5       1.0  0.28814982562298264  0.34441203511708546  0.3392732080026396  1.0000
  Sb  Sb6       1.0  0.6125805252400524  0.4659939980222347  0.6722842957676245  1.0000
  Sb  Sb7       1.0  0.5107153166438936  0.5250980337807484  0.12310208738457241  1.0000
  Sb  Sb8       1.0  0.5193870453397221  0.4770029087684051  0.828404758608178  1.0000
  Sb  Sb9       1.0  0.700985206046514  0.3965006684245906  0.2859265273470186  1.0000
  Sb  Sb10      1.0  0.2681134492109358  0.6064999981538656  0.7475942042969983  1.0000
  O   O1        1.0  0.349184092168319  0.7928612886029459  0.23337944065576247  1.0000
  O   O2        1.0  0.5757074591230442  0.22256664398862827  0.8233064809494384  1.0000
data_image50
_chemical_formula_structural       Eu10Cd4Sb10O2
_chemical_formula_sum              "Eu10 Cd4 Sb10 O2"
_cell_length_a       11.24426501306804
_cell_length_b       11.24426501306804
_cell_length_c       14.850709
_cell_angle_alpha    90.0
_cell_angle_beta     90.0
_cell_angle_gamma    155.89846091665316

_space_group_name_H-M_alt    "P 1"
_space_group_IT_number       1

loop_
  _space_group_symop_operation_xyz
  'x, y, z'

loop_
  _atom_site_type_symbol
  _atom_site_label
  _atom_site_symmetry_multiplicity
  _atom_site_fract_x
  _atom_site_fract_y
  _atom_site_fract_z
  _atom_site_occupancy
  Eu  Eu1       1.0  0.6862783731573102  0.1358943623587224  0.8897717890584795  1.0000
  Eu  Eu2       1.0  0.3639812168847259  0.8524804640685434  0.10738212265915913  1.0000
  Eu  Eu3       1.0  0.6150997788780536  0.13798770967976823  0.6585053599288643  1.0000
  Eu  Eu4       1.0  0.26701679204404866  0.8183920987390607  0.36459291586770454  1.0000
  Eu  Eu5       1.0  0.7893549893156072  0.10755149648250557  0.26405672059310814  1.0000
  Eu  Eu6       1.0  0.01978869320804549  0.6846013238328956  0.8225118641254899  1.0000
  Eu  Eu7       1.0  0.08068299359161303  0.9333680622352796  0.21837438440577692  1.0000
  Eu  Eu8       1.0  0.9433342850615404  0.04160460288322834  0.7177123587854669  1.0000
  Eu  Eu9       1.0  0.9411611478822729  0.9011863987609554  0.4777797901785974  1.0000
  Eu  Eu10      1.0  0.034460349903050726  0.046295414779677586  0.9694607886635688  1.0000
  Cd  Cd1       1.0  0.5151642886998323  0.2943866110310827  0.455412790369432  1.0000
  Cd  Cd2       1.0  0.45795637461554484  0.8507055461384087  0.5377172173576596  1.0000
  Cd  Cd3       1.0  0.7483456626911589  0.5739140644776779  0.007595867455370892  1.0000
  Cd  Cd4       1.0  0.42013562378541863  0.6480020257298803  0.9347273952456323  1.0000
  Sb  Sb1       1.0  0.07293466983927388  0.3750097578307894  0.45522376067146136  1.0000
  Sb  Sb2       1.0  0.06693123171873232  0.7534742543076938  0.5500868228429369  1.0000
  Sb  Sb3       1.0  0.9100058917273869  0.18313413196348663  0.0735063321797753  1.0000
  Sb  Sb4       1.0  0.3248312738447827  0.027069365862100403  0.9810359912072161  1.0000
  Sb  Sb5       1.0  0.3750777307653995  0.4310193933250574  0.345306318164403  1.0000
  Sb  Sb6       1.0  0.5185811564007972  0.3957713710119387  0.6601314936090319  1.0000
  Sb  Sb7       1.0  0.5017290666924272  0.5104609692189802  0.12559441012649278  1.0000
  Sb  Sb8       1.0  0.48809775951767265  0.4631881462292318  0.8321748278214344  1.0000
  Sb  Sb9       1.0  0.6482054847398353  0.35622811181208547  0.284461977523781  1.0000
  Sb  Sb10      1.0  0.30417998019888454  0.6178137549667446  0.7623739815851029  1.0000
  O   O1        1.0  0.37174089169072216  0.7553518831111303  0.22669504410971497  1.0000
  O   O2        1.0  0.47845251345524786  0.06895231018762042  0.7935893775363841  1.0000
data_image51
_chemical_formula_structural       Eu10Cd4Sb10O2
_chemical_formula_sum              "Eu10 Cd4 Sb10 O2"
_cell_length_a       11.24426501306804
_cell_length_b       11.24426501306804
_cell_length_c       14.850709
_cell_angle_alpha    90.0
_cell_angle_beta     90.0
_cell_angle_gamma    155.89846091665316

_space_group_name_H-M_alt    "P 1"
_space_group_IT_number       1

loop_
  _space_group_symop_operation_xyz
  'x, y, z'

loop_
  _atom_site_type_symbol
  _atom_site_label
  _atom_site_symmetry_multiplicity
  _atom_site_fract_x
  _atom_site_fract_y
  _atom_site_fract_z
  _atom_site_occupancy
  Eu  Eu1       1.0  0.7846285585275665  0.20405203882613265  0.8829717454863086  1.0000
  Eu  Eu2       1.0  0.3653058553145155  0.8525076822263064  0.1303106857298802  1.0000
  Eu  Eu3       1.0  0.6479040826223662  0.21397431212930695  0.6580207009933461  1.0000
  Eu  Eu4       1.0  0.1711393691380579  0.7135679661104787  0.3609188137868699  1.0000
  Eu  Eu5       1.0  0.8761395683113817  0.21012693207389196  0.282176237115624  1.0000
  Eu  Eu6       1.0  0.8736420861739784  0.5714399520567622  0.8097966272306137  1.0000
  Eu  Eu7       1.0  0.052763312601734474  0.9388593054145679  0.21074264589069983  1.0000
  Eu  Eu8       1.0  0.05162318096156393  0.11952306153861447  0.7141945533634056  1.0000
  Eu  Eu9       1.0  0.9818978381242461  0.9143578638743921  0.4645949170341509  1.0000
  Eu  Eu10      1.0  0.05005718880388733  0.05234242335202567  0.9804368188922598  1.0000
  Cd  Cd1       1.0  0.5400242922384374  0.3242362436266687  0.46312931442613237  1.0000
  Cd  Cd2       1.0  0.4871628496227032  0.8865423760264037  0.5133631473299153  1.0000
  Cd  Cd3       1.0  0.6401293480763458  0.4466745163224544  0.03451859299337428  1.0000
  Cd  Cd4       1.0  0.46077559287638065  0.6792632682216924  0.946073119621704  1.0000
  Sb  Sb1       1.0  0.015369125422793672  0.3148783566263139  0.4621419983151572  1.0000
  Sb  Sb2       1.0  0.07225117549369026  0.7636273950177705  0.5799369708337501  1.0000
  Sb  Sb3       1.0  0.8372636608378782  0.11235810931387474  0.075721175612975  1.0000
  Sb  Sb4       1.0  0.24441973568243533  0.9260634266874347  0.9857904914063114  1.0000
  Sb  Sb5       1.0  0.4629221237683545  0.5152339646812688  0.3002279837570039  1.0000
  Sb  Sb6       1.0  0.5248124613081532  0.42349228224911234  0.623643713808538  1.0000
  Sb  Sb7       1.0  0.4385317771078891  0.4703516107899085  0.12297392543675399  1.0000
  Sb  Sb8       1.0  0.6012352765255292  0.5490195566521309  0.8456392917494102  1.0000
  Sb  Sb9       1.0  0.6308217686035001  0.3189336010146235  0.27732599581446116  1.0000
  Sb  Sb10      1.0  0.2599720381824473  0.5874621483294219  0.7673238379704636  1.0000
  O   O1        1.0  0.2810151565669117  0.6702811488669587  0.2523518751698997  1.0000
  O   O2        1.0  0.5273303950003758  0.12724694019575772  0.8062557339940614  1.0000
data_image52
_chemical_formula_structural       Eu10Cd4Sb10O2
_chemical_formula_sum              "Eu10 Cd4 Sb10 O2"
_cell_length_a       11.24426501306804
_cell_length_b       11.24426501306804
_cell_length_c       14.850709
_cell_angle_alpha    90.0
_cell_angle_beta     90.0
_cell_angle_gamma    155.89846091665316

_space_group_name_H-M_alt    "P 1"
_space_group_IT_number       1

loop_
  _space_group_symop_operation_xyz
  'x, y, z'

loop_
  _atom_site_type_symbol
  _atom_site_label
  _atom_site_symmetry_multiplicity
  _atom_site_fract_x
  _atom_site_fract_y
  _atom_site_fract_z
  _atom_site_occupancy
  Eu  Eu1       1.0  0.7991291915365667  0.20733489785942857  0.8842637409494856  1.0000
  Eu  Eu2       1.0  0.3624244008054632  0.8577125383063399  0.16218101849945207  1.0000
  Eu  Eu3       1.0  0.6352316920376252  0.17596747224404152  0.6446857655979684  1.0000
  Eu  Eu4       1.0  0.14683247821475148  0.7041825345811837  0.3767584563118979  1.0000
  Eu  Eu5       1.0  0.793981908756112  0.08595911990110316  0.28157033774102014  1.0000
  Eu  Eu6       1.0  0.8693246169446149  0.5833249267039798  0.7858624344908898  1.0000
  Eu  Eu7       1.0  0.08968964525538815  0.9985832795599737  0.22187687946011445  1.0000
  Eu  Eu8       1.0  0.045776042817003315  0.10222679509851185  0.712145193593845  1.0000
  Eu  Eu9       1.0  0.010686671469326087  0.0007797676213276921  0.4725331969541144  1.0000
  Eu  Eu10      1.0  0.036020429869729836  0.03361297189182919  0.9632998668559102  1.0000
  Cd  Cd1       1.0  0.6629267899599393  0.4087328716650618  0.43830705110889606  1.0000
  Cd  Cd2       1.0  0.3977286240423869  0.8053711407035201  0.53602870586696  1.0000
  Cd  Cd3       1.0  0.7142179681576387  0.4869739078606411  0.058667464514869413  1.0000
  Cd  Cd4       1.0  0.4596488646202292  0.6871984072350463  0.9351317979666117  1.0000
  Sb  Sb1       1.0  0.00853701738598489  0.28105806268552985  0.5147790360925125  1.0000
  Sb  Sb2       1.0  0.047412688395924996  0.7682489112726124  0.5845148049833835  1.0000
  Sb  Sb3       1.0  0.7750375151594499  0.0593534597880345  0.07847875566080842  1.0000
  Sb  Sb4       1.0  0.15964528118916113  0.8217860180459976  0.9868793982075238  1.0000
  Sb  Sb5       1.0  0.5307049312777111  0.5790829422430385  0.3112902755522177  1.0000
  Sb  Sb6       1.0  0.5535034656952362  0.4781369345164387  0.614266463210734  1.0000
  Sb  Sb7       1.0  0.4801968659558909  0.5618748909396036  0.10242271731087796  1.0000
  Sb  Sb8       1.0  0.6368770557725577  0.5806049393359217  0.8483914755285635  1.0000
  Sb  Sb9       1.0  0.5843116161570585  0.2720231893379713  0.2527015251771368  1.0000
  Sb  Sb10      1.0  0.28090411258017506  0.5715859930810077  0.7188813276676802  1.0000
  O   O1        1.0  0.2730033890671002  0.6531855883789373  0.2820474303583864  1.0000
  O   O2        1.0  0.637502820479151  0.20698081963516857  0.7968489637694812  1.0000
data_image53
_chemical_formula_structural       Eu10Cd4Sb10O2
_chemical_formula_sum              "Eu10 Cd4 Sb10 O2"
_cell_length_a       11.24426501306804
_cell_length_b       11.24426501306804
_cell_length_c       14.850709
_cell_angle_alpha    90.0
_cell_angle_beta     90.0
_cell_angle_gamma    155.89846091665316

_space_group_name_H-M_alt    "P 1"
_space_group_IT_number       1

loop_
  _space_group_symop_operation_xyz
  'x, y, z'

loop_
  _atom_site_type_symbol
  _atom_site_label
  _atom_site_symmetry_multiplicity
  _atom_site_fract_x
  _atom_site_fract_y
  _atom_site_fract_z
  _atom_site_occupancy
  Eu  Eu1       1.0  0.8273396731890067  0.2624677379911032  0.9057178400662663  1.0000
  Eu  Eu2       1.0  0.23011930547612117  0.7131582350883173  0.15783060241746716  1.0000
  Eu  Eu3       1.0  0.8132078886956106  0.3206212176033395  0.6450205607164908  1.0000
  Eu  Eu4       1.0  0.09758523694081929  0.6597554534946579  0.3818443241474766  1.0000
  Eu  Eu5       1.0  0.7539999466349276  0.03284494306616474  0.30501098742377525  1.0000
  Eu  Eu6       1.0  0.9529254390296366  0.6735396560520067  0.7747639951945025  1.0000
  Eu  Eu7       1.0  0.09410116099691787  0.010226472031680034  0.20777117709407966  1.0000
  Eu  Eu8       1.0  0.975219379526708  0.03131156153320886  0.7240976870236456  1.0000
  Eu  Eu9       1.0  0.0589970511047227  0.10701881321942923  0.438653318455171  1.0000
  Eu  Eu10      1.0  0.0750031643860216  0.07775546529232381  0.976990951341054  1.0000
  Cd  Cd1       1.0  0.6166739408350557  0.40409454204396683  0.4277390017221213  1.0000
  Cd  Cd2       1.0  0.343693115701435  0.7371241907150197  0.5345327970526885  1.0000
  Cd  Cd3       1.0  0.7040746842031532  0.47778658115611106  0.07868337489776597  1.0000
  Cd  Cd4       1.0  0.42756805330041325  0.6313308324776602  0.9051283400438959  1.0000
  Sb  Sb1       1.0  0.9191758319991631  0.19154169493825  0.528475700837137  1.0000
  Sb  Sb2       1.0  0.0451147544217795  0.799643008109649  0.5593907427098469  1.0000
  Sb  Sb3       1.0  0.8192857221552139  0.08604885359152241  0.10377110144903316  1.0000
  Sb  Sb4       1.0  0.2519587547011984  0.8760756004125825  0.9684430701524337  1.0000
  Sb  Sb5       1.0  0.49712114024311205  0.5225460752665483  0.3095575821427318  1.0000
  Sb  Sb6       1.0  0.5522956941509178  0.4999745834714322  0.61575644855389  1.0000
  Sb  Sb7       1.0  0.529697158675899  0.5916696131108984  0.11136290892811508  1.0000
  Sb  Sb8       1.0  0.5531582335099928  0.5006295023861318  0.8565981147462267  1.0000
  Sb  Sb9       1.0  0.6027484530074959  0.27043003036759167  0.24058884217169693  1.0000
  Sb  Sb10      1.0  0.3203164468888971  0.5982219526116486  0.7245551441555459  1.0000
  O   O1        1.0  0.14461757069918435  0.5377870223100908  0.29292024221229096  1.0000
  O   O2        1.0  0.6686669361237672  0.25077280832466287  0.7705423534488542  1.0000
data_image54
_chemical_formula_structural       Eu10Cd4Sb10O2
_chemical_formula_sum              "Eu10 Cd4 Sb10 O2"
_cell_length_a       11.24426501306804
_cell_length_b       11.24426501306804
_cell_length_c       14.850709
_cell_angle_alpha    90.0
_cell_angle_beta     90.0
_cell_angle_gamma    155.89846091665316

_space_group_name_H-M_alt    "P 1"
_space_group_IT_number       1

loop_
  _space_group_symop_operation_xyz
  'x, y, z'

loop_
  _atom_site_type_symbol
  _atom_site_label
  _atom_site_symmetry_multiplicity
  _atom_site_fract_x
  _atom_site_fract_y
  _atom_site_fract_z
  _atom_site_occupancy
  Eu  Eu1       1.0  0.8367797901199971  0.2891860471505014  0.8870057716776399  1.0000
  Eu  Eu2       1.0  0.05088953665199197  0.5130564559137374  0.1574030106580201  1.0000
  Eu  Eu3       1.0  0.8188638723118232  0.3157938618699611  0.6668335470650415  1.0000
  Eu  Eu4       1.0  0.08639908132986053  0.6480598929301854  0.37080245600280554  1.0000
  Eu  Eu5       1.0  0.7096369256845831  0.013385529901667552  0.3207192853468697  1.0000
  Eu  Eu6       1.0  0.08652863089828743  0.8138581383091729  0.7923338591150486  1.0000
  Eu  Eu7       1.0  0.08630631690810418  0.9487419046214808  0.20485955913280607  1.0000
  Eu  Eu8       1.0  0.9776252749194694  0.05108556152411957  0.7264616841126824  1.0000
  Eu  Eu9       1.0  0.0818425681330601  0.08913472510341862  0.43768052333862256  1.0000
  Eu  Eu10      1.0  0.01573863434044954  0.031840775501170156  0.994181397424349  1.0000
  Cd  Cd1       1.0  0.5644234899235573  0.36824512736559184  0.4301172121805829  1.0000
  Cd  Cd2       1.0  0.36885942943352645  0.8020228978847015  0.5292624895360694  1.0000
  Cd  Cd3       1.0  0.6632547002011138  0.4403307095962072  0.05185658182780459  1.0000
  Cd  Cd4       1.0  0.4499001057197607  0.6113917175965088  0.8929028188765057  1.0000
  Sb  Sb1       1.0  0.8922844628701557  0.18852768885647977  0.522301982892994  1.0000
  Sb  Sb2       1.0  0.09118077357510503  0.8754201825646389  0.5729418418482518  1.0000
  Sb  Sb3       1.0  0.8259856282934506  0.1038681329946977  0.06904205287270483  1.0000
  Sb  Sb4       1.0  0.3593199490844911  0.007709357542081685  0.9845408919138268  1.0000
  Sb  Sb5       1.0  0.563829270787896  0.5971748825736558  0.30449198858213655  1.0000
  Sb  Sb6       1.0  0.47562324965266145  0.4215762224853871  0.6035773909354195  1.0000
  Sb  Sb7       1.0  0.5181115095191132  0.5263909737425213  0.12432392337190266  1.0000
  Sb  Sb8       1.0  0.5922635107186494  0.5122226892503025  0.8593844092776391  1.0000
  Sb  Sb9       1.0  0.5692133361094461  0.20371759432985218  0.2319215979241604  1.0000
  Sb  Sb10      1.0  0.4083557847709841  0.7479344209037876  0.7368751529992846  1.0000
  O   O1        1.0  0.13418418941550225  0.4851370262849342  0.2824908060301805  1.0000
  O   O2        1.0  0.6446061482761875  0.2695293283313698  0.7709585955857633  1.0000
data_image55
_chemical_formula_structural       Eu10Cd4Sb10O2
_chemical_formula_sum              "Eu10 Cd4 Sb10 O2"
_cell_length_a       11.24426501306804
_cell_length_b       11.24426501306804
_cell_length_c       14.850709
_cell_angle_alpha    90.0
_cell_angle_beta     90.0
_cell_angle_gamma    155.89846091665316

_space_group_name_H-M_alt    "P 1"
_space_group_IT_number       1

loop_
  _space_group_symop_operation_xyz
  'x, y, z'

loop_
  _atom_site_type_symbol
  _atom_site_label
  _atom_site_symmetry_multiplicity
  _atom_site_fract_x
  _atom_site_fract_y
  _atom_site_fract_z
  _atom_site_occupancy
  Eu  Eu1       1.0  0.8761998079360991  0.3271237428364014  0.8760179115597533  1.0000
  Eu  Eu2       1.0  0.003653683873524123  0.47494050430203516  0.13161646574472471  1.0000
  Eu  Eu3       1.0  0.8527394674936529  0.4013267680648808  0.6677997228243296  1.0000
  Eu  Eu4       1.0  0.029787011608589025  0.5887983524082482  0.35402401113989274  1.0000
  Eu  Eu5       1.0  0.6379978024304541  0.9721446578073372  0.32032912386381995  1.0000
  Eu  Eu6       1.0  0.20759749622185794  0.9212429880860598  0.7957748991063938  1.0000
  Eu  Eu7       1.0  0.08848535040283358  0.9316797528165153  0.19329291339222704  1.0000
  Eu  Eu8       1.0  0.9785818426651157  0.08493483567133683  0.7024991926447005  1.0000
  Eu  Eu9       1.0  0.06612135042161538  0.05521469300642386  0.460429320890778  1.0000
  Eu  Eu10      1.0  0.9461238956111444  0.9742050041900617  0.974922003995988  1.0000
  Cd  Cd1       1.0  0.6459714802460266  0.41416553591647093  0.42059153191437265  1.0000
  Cd  Cd2       1.0  0.4518447406219168  0.8927827260233673  0.5679966873890747  1.0000
  Cd  Cd3       1.0  0.7456586873626503  0.5106479830311894  0.04874949346501093  1.0000
  Cd  Cd4       1.0  0.38272451775075794  0.576666935772637  0.9017119798659317  1.0000
  Sb  Sb1       1.0  0.9907568472755994  0.27136695550780593  0.5275406545969823  1.0000
  Sb  Sb2       1.0  0.13947664442400237  0.8983824167572844  0.5819736279196557  1.0000
  Sb  Sb3       1.0  0.7551859378331506  0.02588957023661671  0.05613876574199273  1.0000
  Sb  Sb4       1.0  0.2788727302680773  0.9019737394789407  0.003677929692046167  1.0000
  Sb  Sb5       1.0  0.5822823581344236  0.626195901857817  0.3098980463881578  1.0000
  Sb  Sb6       1.0  0.5768133612086092  0.5139422616514251  0.6263009539364899  1.0000
  Sb  Sb7       1.0  0.46129591137372733  0.4580472638439118  0.12098978691262777  1.0000
  Sb  Sb8       1.0  0.5128514355606688  0.4193351713550436  0.8429359098086732  1.0000
  Sb  Sb9       1.0  0.4668935477767696  0.08908446101699209  0.23727877705583297  1.0000
  Sb  Sb10      1.0  0.43322920932963305  0.7838647790458296  0.76909872141456  1.0000
  O   O1        1.0  0.09331851448114234  0.48403836850670656  0.2694339692995546  1.0000
  O   O2        1.0  0.7695289829526915  0.39551558572452056  0.8079577621505922  1.0000
data_image56
_chemical_formula_structural       Eu10Cd4Sb10O2
_chemical_formula_sum              "Eu10 Cd4 Sb10 O2"
_cell_length_a       11.24426501306804
_cell_length_b       11.24426501306804
_cell_length_c       14.850709
_cell_angle_alpha    90.0
_cell_angle_beta     90.0
_cell_angle_gamma    155.89846091665316

_space_group_name_H-M_alt    "P 1"
_space_group_IT_number       1

loop_
  _space_group_symop_operation_xyz
  'x, y, z'

loop_
  _atom_site_type_symbol
  _atom_site_label
  _atom_site_symmetry_multiplicity
  _atom_site_fract_x
  _atom_site_fract_y
  _atom_site_fract_z
  _atom_site_occupancy
  Eu  Eu1       1.0  0.9357013458815624  0.3846881944633554  0.8904054245496462  1.0000
  Eu  Eu2       1.0  0.9812733335029081  0.4456847051653104  0.10318721226687612  1.0000
  Eu  Eu3       1.0  0.8836424598295167  0.4550897338194586  0.6560676941880554  1.0000
  Eu  Eu4       1.0  0.007400990135994923  0.5299501737981831  0.3815191989838178  1.0000
  Eu  Eu5       1.0  0.683395751294935  0.9984309818922589  0.3184144347390379  1.0000
  Eu  Eu6       1.0  0.21381889621468392  0.9039929642178515  0.8115003613126865  1.0000
  Eu  Eu7       1.0  0.02377504523682023  0.8738368728949514  0.21616144748024155  1.0000
  Eu  Eu8       1.0  0.00257802199545476  0.12472705632608826  0.7012953582283372  1.0000
  Eu  Eu9       1.0  0.02111452465079674  0.010731212132846607  0.4655083141890595  1.0000
  Eu  Eu10      1.0  0.9624519581566402  0.9761975623986692  0.9567451311338875  1.0000
  Cd  Cd1       1.0  0.5682214896055736  0.3629681914204802  0.40019353970624555  1.0000
  Cd  Cd2       1.0  0.4291463326173994  0.8724859728066854  0.5822165181275413  1.0000
  Cd  Cd3       1.0  0.763026607371923  0.5504138159669419  0.06731378734791987  1.0000
  Cd  Cd4       1.0  0.2685665251269342  0.4941969299603283  0.9093972642026259  1.0000
  Sb  Sb1       1.0  0.01819851488765334  0.3268957775428064  0.5372943630547629  1.0000
  Sb  Sb2       1.0  0.23033789886456496  0.9194126139977469  0.5535895812689522  1.0000
  Sb  Sb3       1.0  0.6212189327788571  0.8891849273859168  0.08807975872430787  1.0000
  Sb  Sb4       1.0  0.3703574893915519  0.005367584601813746  0.9931064898519731  1.0000
  Sb  Sb5       1.0  0.6158349807592997  0.6466996559427011  0.30063445262841865  1.0000
  Sb  Sb6       1.0  0.6744966887875854  0.5984015453668002  0.6232750010475177  1.0000
  Sb  Sb7       1.0  0.26426364519491224  0.2815845114931617  0.11649740541291546  1.0000
  Sb  Sb8       1.0  0.458253436299636  0.4250015689655065  0.8278224198865896  1.0000
  Sb  Sb9       1.0  0.5172343232732172  0.12246013315333401  0.2304067573228132  1.0000
  Sb  Sb10      1.0  0.5645023620407876  0.9071367306798678  0.7579756865230156  1.0000
  O   O1        1.0  0.17053718879786647  0.5605064174416569  0.27633794714607335  1.0000
  O   O2        1.0  0.7649052761628268  0.3715658062448851  0.7835447658711271  1.0000
data_image57
_chemical_formula_structural       Eu10Cd4Sb10O2
_chemical_formula_sum              "Eu10 Cd4 Sb10 O2"
_cell_length_a       11.24426501306804
_cell_length_b       11.24426501306804
_cell_length_c       14.850709
_cell_angle_alpha    90.0
_cell_angle_beta     90.0
_cell_angle_gamma    155.89846091665316

_space_group_name_H-M_alt    "P 1"
_space_group_IT_number       1

loop_
  _space_group_symop_operation_xyz
  'x, y, z'

loop_
  _atom_site_type_symbol
  _atom_site_label
  _atom_site_symmetry_multiplicity
  _atom_site_fract_x
  _atom_site_fract_y
  _atom_site_fract_z
  _atom_site_occupancy
  Eu  Eu1       1.0  0.8905920595865963  0.39308867081583626  0.8777182663121963  1.0000
  Eu  Eu2       1.0  0.08420619389308623  0.5306959742695601  0.13469507138670878  1.0000
  Eu  Eu3       1.0  0.7904425884269827  0.34676127542957735  0.660076415148165  1.0000
  Eu  Eu4       1.0  0.045691422575953364  0.5540666247803809  0.4000086001908077  1.0000
  Eu  Eu5       1.0  0.711316198213086  0.0160845063948952  0.30003825224352293  1.0000
  Eu  Eu6       1.0  0.24312525197977652  0.944952521453826  0.8197305148721858  1.0000
  Eu  Eu7       1.0  0.060503122359717505  0.8933966001207326  0.2738109332105131  1.0000
  Eu  Eu8       1.0  0.07123006126178155  0.21502872539124337  0.6809467629414818  1.0000
  Eu  Eu9       1.0  0.006636620278342769  0.01022735549338039  0.4477615057858284  1.0000
  Eu  Eu10      1.0  0.9356612955166927  0.9183406913517332  0.9639344767574125  1.0000
  Cd  Cd1       1.0  0.5980197136494091  0.36580943113137804  0.4028026922774161  1.0000
  Cd  Cd2       1.0  0.5025600742321276  0.9057148754822606  0.5819528448915806  1.0000
  Cd  Cd3       1.0  0.6268655643769531  0.4213471409710786  0.05239011990490571  1.0000
  Cd  Cd4       1.0  0.31875892408903944  0.5357677631105867  0.8846661262042373  1.0000
  Sb  Sb1       1.0  0.06250971327949761  0.3506923910638924  0.5068415899508367  1.0000
  Sb  Sb2       1.0  0.21724397017883723  0.9020704596907816  0.5104810057739685  1.0000
  Sb  Sb3       1.0  0.6362801246698762  0.8595801963411047  0.07535270643805646  1.0000
  Sb  Sb4       1.0  0.417347402456526  0.014161603623424002  0.9961445666317996  1.0000
  Sb  Sb5       1.0  0.4046480345311901  0.4518407645252836  0.31240510316523545  1.0000
  Sb  Sb6       1.0  0.6641732954406822  0.6219550587203114  0.6390344184560451  1.0000
  Sb  Sb7       1.0  0.23226595740153225  0.328798471286494  0.12472332121748154  1.0000
  Sb  Sb8       1.0  0.47591399247248173  0.4493437774947083  0.8172952985992773  1.0000
  Sb  Sb9       1.0  0.563250667484457  0.18698771183615234  0.23488748952689872  1.0000
  Sb  Sb10      1.0  0.4972374384850873  0.8606901375211234  0.7738641124085811  1.0000
  O   O1        1.0  0.11571536561063399  0.4880019734625228  0.2718769900946835  1.0000
  O   O2        1.0  0.7522471973688659  0.3918358564208093  0.7841250192136701  1.0000
data_image58
_chemical_formula_structural       Eu10Cd4Sb10O2
_chemical_formula_sum              "Eu10 Cd4 Sb10 O2"
_cell_length_a       11.24426501306804
_cell_length_b       11.24426501306804
_cell_length_c       14.850709
_cell_angle_alpha    90.0
_cell_angle_beta     90.0
_cell_angle_gamma    155.89846091665316

_space_group_name_H-M_alt    "P 1"
_space_group_IT_number       1

loop_
  _space_group_symop_operation_xyz
  'x, y, z'

loop_
  _atom_site_type_symbol
  _atom_site_label
  _atom_site_symmetry_multiplicity
  _atom_site_fract_x
  _atom_site_fract_y
  _atom_site_fract_z
  _atom_site_occupancy
  Eu  Eu1       1.0  0.8368705778985257  0.36320795958672064  0.8881846460340265  1.0000
  Eu  Eu2       1.0  0.17910994422326104  0.6127592477386629  0.1553146407690185  1.0000
  Eu  Eu3       1.0  0.8908050194543752  0.4387631914865988  0.6703058334430559  1.0000
  Eu  Eu4       1.0  0.06246235766764754  0.5487223379061885  0.367646423657197  1.0000
  Eu  Eu5       1.0  0.708747641162226  0.005307597990966073  0.28786863919276345  1.0000
  Eu  Eu6       1.0  0.3226271920281707  0.05011688013815885  0.8124666631321545  1.0000
  Eu  Eu7       1.0  0.082935084496771  0.9197011367651381  0.26498746565352516  1.0000
  Eu  Eu8       1.0  0.11925780468117808  0.2968548810289449  0.6820175163374664  1.0000
  Eu  Eu9       1.0  0.9917942320910372  0.011355135848426888  0.4767577962397206  1.0000
  Eu  Eu10      1.0  0.9041022156685177  0.8654903705712714  0.9594063357855344  1.0000
  Cd  Cd1       1.0  0.6572433942912984  0.4331499375796112  0.4427258278345184  1.0000
  Cd  Cd2       1.0  0.4663687750513912  0.8686738365892883  0.5402667769751314  1.0000
  Cd  Cd3       1.0  0.4991429856542122  0.2732149818916017  0.07823364621695236  1.0000
  Cd  Cd4       1.0  0.3124345249572109  0.5092114988455106  0.9012274596511155  1.0000
  Sb  Sb1       1.0  0.07375938256841374  0.3262389684433716  0.5079616924077219  1.0000
  Sb  Sb2       1.0  0.21395785433705927  0.8999794390542838  0.5226495456582959  1.0000
  Sb  Sb3       1.0  0.6164014232651497  0.8519631228889702  0.038786834241326736  1.0000
  Sb  Sb4       1.0  0.3154416445503717  0.8741432993880625  0.006401726753174408  1.0000
  Sb  Sb5       1.0  0.37058969811831255  0.4120375549150956  0.3290501326699763  1.0000
  Sb  Sb6       1.0  0.6063201995015183  0.5888298688942112  0.6206174761215127  1.0000
  Sb  Sb7       1.0  0.1596785694319539  0.2682346195868181  0.10333023798558574  1.0000
  Sb  Sb8       1.0  0.5031251442993787  0.46360259613790544  0.7988599885301235  1.0000
  Sb  Sb9       1.0  0.6569586313975144  0.28097142012532506  0.2564060114045642  1.0000
  Sb  Sb10      1.0  0.42356374397843743  0.8232311871589189  0.7633882510040597  1.0000
  O   O1        1.0  0.15031754793938135  0.47929815653917257  0.27306783258168127  1.0000
  O   O2        1.0  0.7824031915110811  0.45359455935017223  0.7693419100551274  1.0000
data_image59
_chemical_formula_structural       Eu10Cd4Sb10O2
_chemical_formula_sum              "Eu10 Cd4 Sb10 O2"
_cell_length_a       11.24426501306804
_cell_length_b       11.24426501306804
_cell_length_c       14.850709
_cell_angle_alpha    90.0
_cell_angle_beta     90.0
_cell_angle_gamma    155.89846091665316

_space_group_name_H-M_alt    "P 1"
_space_group_IT_number       1

loop_
  _space_group_symop_operation_xyz
  'x, y, z'

loop_
  _atom_site_type_symbol
  _atom_site_label
  _atom_site_symmetry_multiplicity
  _atom_site_fract_x
  _atom_site_fract_y
  _atom_site_fract_z
  _atom_site_occupancy
  Eu  Eu1       1.0  0.8503598860072838  0.3549301928988365  0.8914564533613242  1.0000
  Eu  Eu2       1.0  0.20076804534259096  0.6306420846104479  0.15381098341426055  1.0000
  Eu  Eu3       1.0  0.9751268760522239  0.5312994665835642  0.6741602810352681  1.0000
  Eu  Eu4       1.0  0.1421832505704254  0.6172531014660155  0.38636905011818473  1.0000
  Eu  Eu5       1.0  0.6790139739379247  0.9183195227072063  0.28494487036685556  1.0000
  Eu  Eu6       1.0  0.3303653292739352  0.02305303635360434  0.8195496366931847  1.0000
  Eu  Eu7       1.0  0.054764678624606405  0.8895597249931662  0.2526815759288453  1.0000
  Eu  Eu8       1.0  0.07488199321548117  0.2952560183759475  0.7168341404883309  1.0000
  Eu  Eu9       1.0  0.008197495909376738  0.99340572603434  0.4711540203666453  1.0000
  Eu  Eu10      1.0  0.9164075363458654  0.8735026932105378  0.9594615054025697  1.0000
  Cd  Cd1       1.0  0.6749613441047045  0.4559390879841587  0.40866698163541265  1.0000
  Cd  Cd2       1.0  0.4526403999362718  0.8930537156986275  0.5469431230319438  1.0000
  Cd  Cd3       1.0  0.4311943854856118  0.24422104459239904  0.07347509424399035  1.0000
  Cd  Cd4       1.0  0.24471722997019335  0.42955588657788213  0.8924022200673565  1.0000
  Sb  Sb1       1.0  0.9957341177588019  0.28165572495528257  0.4893908648325112  1.0000
  Sb  Sb2       1.0  0.17220160582040603  0.8733674147548576  0.5393765343441593  1.0000
  Sb  Sb3       1.0  0.6118152873784027  0.855136406823363  0.028270936310804125  1.0000
  Sb  Sb4       1.0  0.29755176166902925  0.8967760712719728  0.0004308073976120319  1.0000
  Sb  Sb5       1.0  0.4644443917187242  0.4724400213491716  0.32210516835065245  1.0000
  Sb  Sb6       1.0  0.5146167065430935  0.4875701129232959  0.6064631889468209  1.0000
  Sb  Sb7       1.0  0.1773374455197832  0.29991880736220805  0.12874929110282876  1.0000
  Sb  Sb8       1.0  0.5361579911423509  0.49369328094730597  0.8087542288974241  1.0000
  Sb  Sb9       1.0  0.6574640282827577  0.30314182229323317  0.23874915400074134  1.0000
  Sb  Sb10      1.0  0.4626825545011024  0.8584146548676088  0.764977681674797  1.0000
  O   O1        1.0  0.15802402224063686  0.494927146945873  0.2685143567384171  1.0000
  O   O2        1.0  0.8141933204098379  0.4678208586781422  0.7863548297955779  1.0000
data_image60
_chemical_formula_structural       Eu10Cd4Sb10O2
_chemical_formula_sum              "Eu10 Cd4 Sb10 O2"
_cell_length_a       11.24426501306804
_cell_length_b       11.24426501306804
_cell_length_c       14.850709
_cell_angle_alpha    90.0
_cell_angle_beta     90.0
_cell_angle_gamma    155.89846091665316

_space_group_name_H-M_alt    "P 1"
_space_group_IT_number       1

loop_
  _space_group_symop_operation_xyz
  'x, y, z'

loop_
  _atom_site_type_symbol
  _atom_site_label
  _atom_site_symmetry_multiplicity
  _atom_site_fract_x
  _atom_site_fract_y
  _atom_site_fract_z
  _atom_site_occupancy
  Eu  Eu1       1.0  0.9148332888554639  0.35732463163308287  0.8802803953737194  1.0000
  Eu  Eu2       1.0  0.10618253736978374  0.5492884979834173  0.13652677997679274  1.0000
  Eu  Eu3       1.0  0.9009798724551077  0.4526492601458091  0.6873421927758262  1.0000
  Eu  Eu4       1.0  0.13660343080460055  0.6630058978721238  0.3991600286396926  1.0000
  Eu  Eu5       1.0  0.620756668964517  0.8438842163454281  0.2558100261785542  1.0000
  Eu  Eu6       1.0  0.40932188598122543  0.12512477943155398  0.8065016037317702  1.0000
  Eu  Eu7       1.0  0.05561118326772008  0.8718410090665093  0.2491253999940374  1.0000
  Eu  Eu8       1.0  0.05630282628823524  0.25472370841110403  0.7010905206078237  1.0000
  Eu  Eu9       1.0  0.9694355990285969  0.9572382230816608  0.4791808729182068  1.0000
  Eu  Eu10      1.0  0.9297924963920827  0.9210433776613223  0.9796883938221318  1.0000
  Cd  Cd1       1.0  0.6474809653472634  0.3817460898915194  0.39632415885472017  1.0000
  Cd  Cd2       1.0  0.4997401535081105  0.9584247419251112  0.5775952101305448  1.0000
  Cd  Cd3       1.0  0.4646031995153531  0.27722083642644413  0.059942987437163135  1.0000
  Cd  Cd4       1.0  0.2847861770454729  0.4653507150628331  0.9285662628069699  1.0000
  Sb  Sb1       1.0  0.9370575862893151  0.22012290014853486  0.5128483414424728  1.0000
  Sb  Sb2       1.0  0.19285049683539635  0.9395820740352135  0.5364460326105004  1.0000
  Sb  Sb3       1.0  0.7507889664516915  0.024137311284736156  0.04414830212282224  1.0000
  Sb  Sb4       1.0  0.23008190695698424  0.8840179583369832  6.175168344269011e-05  1.0000
  Sb  Sb5       1.0  0.44843531595863606  0.4340994207146096  0.29190930922154606  1.0000
  Sb  Sb6       1.0  0.4681197013794894  0.4045302694753786  0.6314988450307787  1.0000
  Sb  Sb7       1.0  0.2622421764294239  0.36251394665151654  0.12530326050758364  1.0000
  Sb  Sb8       1.0  0.5299082841854329  0.49745804431679186  0.8155075762735755  1.0000
  Sb  Sb9       1.0  0.6576706566353069  0.28788136909659684  0.21890598722072582  1.0000
  Sb  Sb10      1.0  0.44914812954502553  0.8319476748863917  0.7559116504373102  1.0000
  O   O1        1.0  0.27461722876671946  0.6393146239300173  0.26856857323826666  1.0000
  O   O2        1.0  0.9961556161969493  0.6325166705465193  0.7991552770612338  1.0000
data_image61
_chemical_formula_structural       Eu10Cd4Sb10O2
_chemical_formula_sum              "Eu10 Cd4 Sb10 O2"
_cell_length_a       11.24426501306804
_cell_length_b       11.24426501306804
_cell_length_c       14.850709
_cell_angle_alpha    90.0
_cell_angle_beta     90.0
_cell_angle_gamma    155.89846091665316

_space_group_name_H-M_alt    "P 1"
_space_group_IT_number       1

loop_
  _space_group_symop_operation_xyz
  'x, y, z'

loop_
  _atom_site_type_symbol
  _atom_site_label
  _atom_site_symmetry_multiplicity
  _atom_site_fract_x
  _atom_site_fract_y
  _atom_site_fract_z
  _atom_site_occupancy
  Eu  Eu1       1.0  0.956990262969413  0.39009987123783657  0.88479547795917  1.0000
  Eu  Eu2       1.0  0.13045041463574342  0.5636146036743898  0.12493373327793877  1.0000
  Eu  Eu3       1.0  0.8697599437545571  0.4262602119484711  0.6826696804017851  1.0000
  Eu  Eu4       1.0  0.2405195788650552  0.745867547256928  0.3848535430695322  1.0000
  Eu  Eu5       1.0  0.572365913148441  0.7979758226802689  0.24490952354990883  1.0000
  Eu  Eu6       1.0  0.3844183144423797  0.15736851371919647  0.7789191893504803  1.0000
  Eu  Eu7       1.0  0.1022681459934476  0.9021843597530755  0.22120542356029205  1.0000
  Eu  Eu8       1.0  0.12447314751518146  0.27364000744671024  0.6972052742388012  1.0000
  Eu  Eu9       1.0  0.8011269526551127  0.8407926005133668  0.4931587820790635  1.0000
  Eu  Eu10      1.0  0.9122627520155502  0.9220943555481618  0.9942895708285451  1.0000
  Cd  Cd1       1.0  0.5877189387454337  0.2920655690440111  0.4021759844585506  1.0000
  Cd  Cd2       1.0  0.41576935643033264  0.8615726085192703  0.5830736905456761  1.0000
  Cd  Cd3       1.0  0.5817905115644623  0.41112067433619753  0.059481343112627295  1.0000
  Cd  Cd4       1.0  0.2780537421290219  0.45878099716485743  0.9397564828246241  1.0000
  Sb  Sb1       1.0  0.91154022410676  0.21614030748615723  0.5040687209658054  1.0000
  Sb  Sb2       1.0  0.23971437220763486  0.9676531180664639  0.5634098396146942  1.0000
  Sb  Sb3       1.0  0.6936042042339655  0.9959232902400663  0.04557527736373632  1.0000
  Sb  Sb4       1.0  0.11929580295458685  0.7829348249985125  0.026653173013057252  1.0000
  Sb  Sb5       1.0  0.45276870890328236  0.40238824987591165  0.3043614221521562  1.0000
  Sb  Sb6       1.0  0.5772371855559225  0.4882191584260803  0.6331215431043746  1.0000
  Sb  Sb7       1.0  0.3054508063323242  0.40002776492342534  0.10954190201304362  1.0000
  Sb  Sb8       1.0  0.5350096921929894  0.5337224628593271  0.8236045066027562  1.0000
  Sb  Sb9       1.0  0.6513196070424151  0.28524651551268954  0.21176433678486983  1.0000
  Sb  Sb10      1.0  0.5065425719194341  0.8629245228880438  0.774360501647485  1.0000
  O   O1        1.0  0.21044203919033236  0.5816789223891351  0.26331223619048943  1.0000
  O   O2        1.0  0.8332271799686944  0.5035092461786164  0.8099722823111843  1.0000
data_image62
_chemical_formula_structural       Eu10Cd4Sb10O2
_chemical_formula_sum              "Eu10 Cd4 Sb10 O2"
_cell_length_a       11.24426501306804
_cell_length_b       11.24426501306804
_cell_length_c       14.850709
_cell_angle_alpha    90.0
_cell_angle_beta     90.0
_cell_angle_gamma    155.89846091665316

_space_group_name_H-M_alt    "P 1"
_space_group_IT_number       1

loop_
  _space_group_symop_operation_xyz
  'x, y, z'

loop_
  _atom_site_type_symbol
  _atom_site_label
  _atom_site_symmetry_multiplicity
  _atom_site_fract_x
  _atom_site_fract_y
  _atom_site_fract_z
  _atom_site_occupancy
  Eu  Eu1       1.0  0.9889457262402822  0.48645369997784116  0.8772592295024705  1.0000
  Eu  Eu2       1.0  0.08250281628467965  0.5342378249931351  0.11841071853337623  1.0000
  Eu  Eu3       1.0  0.8269659344899569  0.38996079313347537  0.6660435472483721  1.0000
  Eu  Eu4       1.0  0.2942025395028731  0.7651910395438349  0.3582151506062139  1.0000
  Eu  Eu5       1.0  0.708791281336036  0.9138042031675655  0.29298856936085443  1.0000
  Eu  Eu6       1.0  0.2597506360425724  0.03581887322558819  0.7981225684959758  1.0000
  Eu  Eu7       1.0  0.03659703636191995  0.8867972936119917  0.19574029153808936  1.0000
  Eu  Eu8       1.0  0.11660753419357639  0.2708077880719947  0.6832877543049618  1.0000
  Eu  Eu9       1.0  0.7702581121260922  0.8269413718125432  0.48031763946814116  1.0000
  Eu  Eu10      1.0  0.9114898311463797  0.9237089911652256  0.014970989808799644  1.0000
  Cd  Cd1       1.0  0.602964385618042  0.30153052402954533  0.38796394160091147  1.0000
  Cd  Cd2       1.0  0.4057268431854857  0.7996581904022176  0.5830074893372457  1.0000
  Cd  Cd3       1.0  0.5561183148315297  0.3534774918981385  0.03197666741534669  1.0000
  Cd  Cd4       1.0  0.22399117455338047  0.45225206586091876  0.9656515544209215  1.0000
  Sb  Sb1       1.0  0.9903658329742409  0.32011632508124777  0.48888294010922667  1.0000
  Sb  Sb2       1.0  0.22803978828821878  0.9235141504896259  0.5911653809686434  1.0000
  Sb  Sb3       1.0  0.6676018048451918  0.985220505124536  0.042713236849075534  1.0000
  Sb  Sb4       1.0  0.17644996700038415  0.8789119346285245  0.0012986614533825325  1.0000
  Sb  Sb5       1.0  0.46226400618756963  0.41645420605217126  0.34666719879943825  1.0000
  Sb  Sb6       1.0  0.6420304957355255  0.5189284964537357  0.6240282042614282  1.0000
  Sb  Sb7       1.0  0.27601825311004374  0.33790198469774946  0.15104866051022448  1.0000
  Sb  Sb8       1.0  0.5969046986626755  0.6055364594670888  0.8210259080955933  1.0000
  Sb  Sb9       1.0  0.622294532510656  0.21818483002017303  0.21398952908462254  1.0000
  Sb  Sb10      1.0  0.5232037542909033  0.8281048454026531  0.7595480705107028  1.0000
  O   O1        1.0  0.323024221968095  0.6471098728747924  0.2547871360078174  1.0000
  O   O2        1.0  0.7341629351350318  0.40832381096263615  0.8048066235797808  1.0000
data_image63
_chemical_formula_structural       Eu10Cd4Sb10O2
_chemical_formula_sum              "Eu10 Cd4 Sb10 O2"
_cell_length_a       11.24426501306804
_cell_length_b       11.24426501306804
_cell_length_c       14.850709
_cell_angle_alpha    90.0
_cell_angle_beta     90.0
_cell_angle_gamma    155.89846091665316

_space_group_name_H-M_alt    "P 1"
_space_group_IT_number       1

loop_
  _space_group_symop_operation_xyz
  'x, y, z'

loop_
  _atom_site_type_symbol
  _atom_site_label
  _atom_site_symmetry_multiplicity
  _atom_site_fract_x
  _atom_site_fract_y
  _atom_site_fract_z
  _atom_site_occupancy
  Eu  Eu1       1.0  0.9179208411493386  0.4221815245430284  0.8913504217698288  1.0000
  Eu  Eu2       1.0  0.09430386095220462  0.5263656319730139  0.1469708940245555  1.0000
  Eu  Eu3       1.0  0.7713150252661043  0.3065116768922282  0.6825343389888274  1.0000
  Eu  Eu4       1.0  0.29631832372648104  0.7705253125647676  0.34863724557109776  1.0000
  Eu  Eu5       1.0  0.8220419439479072  0.03198392372862879  0.294269771926  1.0000
  Eu  Eu6       1.0  0.2027114914263773  0.9858350978160979  0.7916489060072506  1.0000
  Eu  Eu7       1.0  0.018280181216044144  0.8232261431651849  0.20169457208440422  1.0000
  Eu  Eu8       1.0  0.14894352940463484  0.28946350767872675  0.6916983179642929  1.0000
  Eu  Eu9       1.0  0.8044458301434364  0.8983111709188536  0.47509153340403637  1.0000
  Eu  Eu10      1.0  0.8956749295908969  0.9535240734878929  0.9963383529470158  1.0000
  Cd  Cd1       1.0  0.6204980977702266  0.32859059558626963  0.4170194812315131  1.0000
  Cd  Cd2       1.0  0.4701664995105732  0.8059863272176198  0.5524618739234064  1.0000
  Cd  Cd3       1.0  0.5807105235212129  0.3804672294773451  0.03528961966510258  1.0000
  Cd  Cd4       1.0  0.288179956711845  0.5244088955714351  0.9614484188237334  1.0000
  Sb  Sb1       1.0  0.9428026713241614  0.2736478200278657  0.45462595466013556  1.0000
  Sb  Sb2       1.0  0.22667470253612781  0.9343821139189621  0.5785403547152148  1.0000
  Sb  Sb3       1.0  0.6736631212409244  0.02007413996699098  0.020395756517742013  1.0000
  Sb  Sb4       1.0  0.16004291543434393  0.8630503366574788  0.9929643468790813  1.0000
  Sb  Sb5       1.0  0.34585502606334134  0.3172030062014345  0.36381971171847644  1.0000
  Sb  Sb6       1.0  0.6192117257057812  0.4693130308226634  0.6311287006014182  1.0000
  Sb  Sb7       1.0  0.41775301771139006  0.427294175493246  0.1722141007376686  1.0000
  Sb  Sb8       1.0  0.6338508531136823  0.6550330920314598  0.8124899150930984  1.0000
  Sb  Sb9       1.0  0.5355804388892188  0.1568998890047723  0.21173244324087842  1.0000
  Sb  Sb10      1.0  0.5274619995572007  0.856536654484697  0.7596158990619922  1.0000
  O   O1        1.0  0.18515905963720872  0.5085397808169733  0.26811734592037995  1.0000
  O   O2        1.0  0.6669139526685569  0.30941797647786784  0.8104785009550419  1.0000
data_image64
_chemical_formula_structural       Eu10Cd4Sb10O2
_chemical_formula_sum              "Eu10 Cd4 Sb10 O2"
_cell_length_a       11.24426501306804
_cell_length_b       11.24426501306804
_cell_length_c       14.850709
_cell_angle_alpha    90.0
_cell_angle_beta     90.0
_cell_angle_gamma    155.89846091665316

_space_group_name_H-M_alt    "P 1"
_space_group_IT_number       1

loop_
  _space_group_symop_operation_xyz
  'x, y, z'

loop_
  _atom_site_type_symbol
  _atom_site_label
  _atom_site_symmetry_multiplicity
  _atom_site_fract_x
  _atom_site_fract_y
  _atom_site_fract_z
  _atom_site_occupancy
  Eu  Eu1       1.0  0.8784567025480645  0.38251437327254406  0.8826822427016748  1.0000
  Eu  Eu2       1.0  0.07217137652207928  0.5001752317223116  0.14045263342370834  1.0000
  Eu  Eu3       1.0  0.7826078250032794  0.30928261989438727  0.6663300962234826  1.0000
  Eu  Eu4       1.0  0.3079231659738756  0.7957162024145545  0.3500936671268068  1.0000
  Eu  Eu5       1.0  0.8729031181323862  0.06300550638320977  0.2603831664067611  1.0000
  Eu  Eu6       1.0  0.15826661928371596  0.9431804717972151  0.7784259006542407  1.0000
  Eu  Eu7       1.0  0.0043875736730265786  0.8039912248934441  0.235087848106496  1.0000
  Eu  Eu8       1.0  0.0898427924456251  0.2288434447370111  0.7356635205491594  1.0000
  Eu  Eu9       1.0  0.814748656794712  0.8593064946162505  0.47676527644421496  1.0000
  Eu  Eu10      1.0  0.8215580147411974  0.9112230166637221  0.9880299394720826  1.0000
  Cd  Cd1       1.0  0.7178394149174318  0.42218869519869734  0.4310653826569742  1.0000
  Cd  Cd2       1.0  0.43579065494194674  0.7464640207068962  0.5721158984883361  1.0000
  Cd  Cd3       1.0  0.5393461772554653  0.364991941674634  0.037263353031060716  1.0000
  Cd  Cd4       1.0  0.25035959308187816  0.483705409986926  0.9515413697832257  1.0000
  Sb  Sb1       1.0  0.8846200065715979  0.2513291974857092  0.4542491272535149  1.0000
  Sb  Sb2       1.0  0.24137606744624035  0.9498778472749587  0.5375103154773666  1.0000
  Sb  Sb3       1.0  0.6406041825198798  0.007007445736981362  0.03394482514403365  1.0000
  Sb  Sb4       1.0  0.15261903890419887  0.8278947577190185  0.9937724768884054  1.0000
  Sb  Sb5       1.0  0.40109706128154643  0.35007906717868253  0.34618597398318557  1.0000
  Sb  Sb6       1.0  0.579043437514138  0.4900791246551814  0.6506623813895198  1.0000
  Sb  Sb7       1.0  0.5307811683559224  0.5328619581403906  0.12826628540196863  1.0000
  Sb  Sb8       1.0  0.568968713512177  0.6176696903541248  0.822921600069918  1.0000
  Sb  Sb9       1.0  0.6369283174414656  0.24629066322298704  0.22611895321600123  1.0000
  Sb  Sb10      1.0  0.6271409191058852  0.9407902556941896  0.7955949095456306  1.0000
  O   O1        1.0  0.2817106272313423  0.5941209507953659  0.2598357796670342  1.0000
  O   O2        1.0  0.9082915397884243  0.5445736574959048  0.7700494235601697  1.0000
data_image65
_chemical_formula_structural       Eu10Cd4Sb10O2
_chemical_formula_sum              "Eu10 Cd4 Sb10 O2"
_cell_length_a       11.24426501306804
_cell_length_b       11.24426501306804
_cell_length_c       14.850709
_cell_angle_alpha    90.0
_cell_angle_beta     90.0
_cell_angle_gamma    155.89846091665316

_space_group_name_H-M_alt    "P 1"
_space_group_IT_number       1

loop_
  _space_group_symop_operation_xyz
  'x, y, z'

loop_
  _atom_site_type_symbol
  _atom_site_label
  _atom_site_symmetry_multiplicity
  _atom_site_fract_x
  _atom_site_fract_y
  _atom_site_fract_z
  _atom_site_occupancy
  Eu  Eu1       1.0  0.898706940175185  0.4243154759507185  0.8853083209313917  1.0000
  Eu  Eu2       1.0  0.16340171460533123  0.6022186043509172  0.1351794118505476  1.0000
  Eu  Eu3       1.0  0.7601296443750101  0.3112039797023918  0.6267160548256656  1.0000
  Eu  Eu4       1.0  0.34580575899176685  0.8118077275789359  0.35509231848006884  1.0000
  Eu  Eu5       1.0  0.8951586554531712  0.08981215010338281  0.24509341946450386  1.0000
  Eu  Eu6       1.0  0.1252071811046249  0.8677805576665197  0.7938459857526288  1.0000
  Eu  Eu7       1.0  0.01872909648844535  0.8263471493479748  0.23167573151117624  1.0000
  Eu  Eu8       1.0  0.9870631946205041  0.14433491799423342  0.7100299401382772  1.0000
  Eu  Eu9       1.0  0.8785429367151134  0.8722767260209027  0.48075392930742133  1.0000
  Eu  Eu10      1.0  0.8879988936389751  0.9685486385617718  0.012759957205520887  1.0000
  Cd  Cd1       1.0  0.7741667938696625  0.4938523235423117  0.41178518985135776  1.0000
  Cd  Cd2       1.0  0.38126526055548005  0.6436172722186999  0.5684800694439736  1.0000
  Cd  Cd3       1.0  0.621659016694824  0.43001433560636626  0.016315867070845726  1.0000
  Cd  Cd4       1.0  0.20235309818264838  0.48086495017281206  0.9482116836009258  1.0000
  Sb  Sb1       1.0  0.8151765749687165  0.1631584927423091  0.4618189726921358  1.0000
  Sb  Sb2       1.0  0.23363406293967437  0.9306976835030734  0.5247821405953228  1.0000
  Sb  Sb3       1.0  0.6217111272840854  0.9844435497249988  0.034179038823134104  1.0000
  Sb  Sb4       1.0  0.15532867546857398  0.8168381027255681  0.007460487344900901  1.0000
  Sb  Sb5       1.0  0.48462467183791763  0.42788444979731943  0.3372046826397773  1.0000
  Sb  Sb6       1.0  0.57338062647085  0.5554526241147046  0.6660957351271571  1.0000
  Sb  Sb7       1.0  0.39950763922961263  0.4343078673448411  0.1543717154067355  1.0000
  Sb  Sb8       1.0  0.5341101410002874  0.5365895845098875  0.8432201779638305  1.0000
  Sb  Sb9       1.0  0.6267528842622196  0.2762636398082249  0.24218418369153177  1.0000
  Sb  Sb10      1.0  0.5555133777048794  0.8848751386686401  0.8091829409749813  1.0000
  O   O1        1.0  0.3370115773194952  0.6475110919192865  0.27309845235927255  1.0000
  O   O2        1.0  0.10719546145911996  0.6602182292716289  0.7423952453428041  1.0000
data_image66
_chemical_formula_structural       Eu10Cd4Sb10O2
_chemical_formula_sum              "Eu10 Cd4 Sb10 O2"
_cell_length_a       11.24426501306804
_cell_length_b       11.24426501306804
_cell_length_c       14.850709
_cell_angle_alpha    90.0
_cell_angle_beta     90.0
_cell_angle_gamma    155.89846091665316

_space_group_name_H-M_alt    "P 1"
_space_group_IT_number       1

loop_
  _space_group_symop_operation_xyz
  'x, y, z'

loop_
  _atom_site_type_symbol
  _atom_site_label
  _atom_site_symmetry_multiplicity
  _atom_site_fract_x
  _atom_site_fract_y
  _atom_site_fract_z
  _atom_site_occupancy
  Eu  Eu1       1.0  0.8766155208274878  0.45226147418788615  0.8829643526580181  1.0000
  Eu  Eu2       1.0  0.18231546576327673  0.637402845297823  0.14156161560041672  1.0000
  Eu  Eu3       1.0  0.8405034405912299  0.3758696046337149  0.6127058263135241  1.0000
  Eu  Eu4       1.0  0.29062088944434306  0.7463039838152259  0.3545010290026153  1.0000
  Eu  Eu5       1.0  0.8761647232427813  0.11329221814499056  0.23823954582320964  1.0000
  Eu  Eu6       1.0  0.12333073842878792  0.8940689579576879  0.8068850651844621  1.0000
  Eu  Eu7       1.0  0.9376935917725228  0.7779855932747208  0.2231164787408662  1.0000
  Eu  Eu8       1.0  0.9651545512369571  0.11871383144514602  0.696877268503817  1.0000
  Eu  Eu9       1.0  0.9962376391839852  0.9298522895534613  0.47665525450829016  1.0000
  Eu  Eu10      1.0  0.9298381954787001  0.006309235036446641  0.0341448854968947  1.0000
  Cd  Cd1       1.0  0.7708364276820533  0.4348577732541395  0.41568837331753306  1.0000
  Cd  Cd2       1.0  0.3916963647565719  0.6039798737906208  0.5580418423899967  1.0000
  Cd  Cd3       1.0  0.5908961500676237  0.41771698880112423  0.9930252651044005  1.0000
  Cd  Cd4       1.0  0.22881166207904508  0.5350007751573695  0.93572338356264  1.0000
  Sb  Sb1       1.0  0.8792584513073856  0.19268468731895239  0.4963681655756063  1.0000
  Sb  Sb2       1.0  0.290742427739047  0.9959897441783927  0.5226540317949975  1.0000
  Sb  Sb3       1.0  0.7782861052179301  0.12526441831037333  0.03294192057008111  1.0000
  Sb  Sb4       1.0  0.2292020119730998  0.9352432113620893  0.02556470615697304  1.0000
  Sb  Sb5       1.0  0.37720477279913883  0.33936681914584144  0.33800434308548233  1.0000
  Sb  Sb6       1.0  0.5136510648330749  0.4758211415584857  0.6651529653396223  1.0000
  Sb  Sb7       1.0  0.31437832732262316  0.33339542674898137  0.16927669934833875  1.0000
  Sb  Sb8       1.0  0.47477223626026843  0.45845769445377027  0.8676350474913894  1.0000
  Sb  Sb9       1.0  0.5813296537812189  0.21030038841711507  0.22373276974278314  1.0000
  Sb  Sb10      1.0  0.5214803015822995  0.8563938091334168  0.7882940044496739  1.0000
  O   O1        1.0  0.36033118104039374  0.6711907158740588  0.27433312694200174  1.0000
  O   O2        1.0  0.8267294809310306  0.450485408129409  0.741802930214503  1.0000
data_image67
_chemical_formula_structural       Eu10Cd4Sb10O2
_chemical_formula_sum              "Eu10 Cd4 Sb10 O2"
_cell_length_a       11.24426501306804
_cell_length_b       11.24426501306804
_cell_length_c       14.850709
_cell_angle_alpha    90.0
_cell_angle_beta     90.0
_cell_angle_gamma    155.89846091665316

_space_group_name_H-M_alt    "P 1"
_space_group_IT_number       1

loop_
  _space_group_symop_operation_xyz
  'x, y, z'

loop_
  _atom_site_type_symbol
  _atom_site_label
  _atom_site_symmetry_multiplicity
  _atom_site_fract_x
  _atom_site_fract_y
  _atom_site_fract_z
  _atom_site_occupancy
  Eu  Eu1       1.0  0.8366969654616292  0.4028926167270636  0.8798900534347994  1.0000
  Eu  Eu2       1.0  0.13958801316412234  0.6288130319290146  0.12398776287453885  1.0000
  Eu  Eu3       1.0  0.8134434117441266  0.365353234482413  0.6662261745144527  1.0000
  Eu  Eu4       1.0  0.2842348540944943  0.7483392584961709  0.38523177988845597  1.0000
  Eu  Eu5       1.0  0.7964460103539639  0.08672412908554535  0.2668515383391603  1.0000
  Eu  Eu6       1.0  0.22813903384232426  0.013958414621264126  0.7977777809689349  1.0000
  Eu  Eu7       1.0  0.9645684756786977  0.856422330570255  0.21783247970459368  1.0000
  Eu  Eu8       1.0  0.012083221722961168  0.14873414169754695  0.7019860878515432  1.0000
  Eu  Eu9       1.0  0.007777404068634293  0.9437467027172208  0.4894657900965289  1.0000
  Eu  Eu10      1.0  0.8158709610913001  0.8711187703699858  0.024748586365884954  1.0000
  Cd  Cd1       1.0  0.6800023841621976  0.3347365192052248  0.39524342415676744  1.0000
  Cd  Cd2       1.0  0.4510255455208395  0.6119802156120113  0.5468610001098767  1.0000
  Cd  Cd3       1.0  0.6066948016228709  0.4292836444511676  0.0017822902847521602  1.0000
  Cd  Cd4       1.0  0.28065540816039813  0.5761465560239031  0.9202486568343248  1.0000
  Sb  Sb1       1.0  0.7911841921387223  0.08192819581014485  0.4772716718437752  1.0000
  Sb  Sb2       1.0  0.28790405914719047  0.9450929862513124  0.5315008167057856  1.0000
  Sb  Sb3       1.0  0.7871430314004857  0.13645459769285  0.028100787956624934  1.0000
  Sb  Sb4       1.0  0.11302591843261044  0.8411303738996906  0.044178987588935126  1.0000
  Sb  Sb5       1.0  0.5215857342586117  0.45944061809531817  0.3428388184990867  1.0000
  Sb  Sb6       1.0  0.5444151381104729  0.49878558716409693  0.6599171737825039  1.0000
  Sb  Sb7       1.0  0.4008815895879813  0.4067604576260634  0.13872917398969314  1.0000
  Sb  Sb8       1.0  0.46494522446236397  0.47904171329116135  0.8499438123478957  1.0000
  Sb  Sb9       1.0  0.6137125600292939  0.19157129889137622  0.22032791753929523  1.0000
  Sb  Sb10      1.0  0.5578456834217997  0.8915506885222501  0.7607571688422671  1.0000
  O   O1        1.0  0.36538411226449874  0.7396380107508359  0.2621564949063432  1.0000
  O   O2        1.0  0.7485854980064963  0.4388421877665227  0.7807358812457909  1.0000
data_image68
_chemical_formula_structural       Eu10Cd4Sb10O2
_chemical_formula_sum              "Eu10 Cd4 Sb10 O2"
_cell_length_a       11.24426501306804
_cell_length_b       11.24426501306804
_cell_length_c       14.850709
_cell_angle_alpha    90.0
_cell_angle_beta     90.0
_cell_angle_gamma    155.89846091665316

_space_group_name_H-M_alt    "P 1"
_space_group_IT_number       1

loop_
  _space_group_symop_operation_xyz
  'x, y, z'

loop_
  _atom_site_type_symbol
  _atom_site_label
  _atom_site_symmetry_multiplicity
  _atom_site_fract_x
  _atom_site_fract_y
  _atom_site_fract_z
  _atom_site_occupancy
  Eu  Eu1       1.0  0.7371910117203504  0.28335802522587505  0.926967948340758  1.0000
  Eu  Eu2       1.0  0.20394681252977184  0.6800109986016059  0.11049813827084859  1.0000
  Eu  Eu3       1.0  0.8119125835964457  0.3676293737987251  0.6631343223533647  1.0000
  Eu  Eu4       1.0  0.22979807391723553  0.6759317518531089  0.39748029744577007  1.0000
  Eu  Eu5       1.0  0.7615350983797596  0.0672625473143726  0.2582154088889601  1.0000
  Eu  Eu6       1.0  0.25347620098079926  0.05109471365523088  0.7719516323566507  1.0000
  Eu  Eu7       1.0  0.02734005014592654  0.9158880117169551  0.21739112501557836  1.0000
  Eu  Eu8       1.0  0.030213147288220332  0.13820689697291058  0.7087443984790391  1.0000
  Eu  Eu9       1.0  0.05978103257952333  0.9919439322496955  0.5002155312825909  1.0000
  Eu  Eu10      1.0  0.8690409375355278  0.9423073631713234  0.9973522791200417  1.0000
  Cd  Cd1       1.0  0.6725222766813628  0.3769145642452272  0.39481131708892087  1.0000
  Cd  Cd2       1.0  0.4404783820449424  0.575273954929277  0.5195275571656289  1.0000
  Cd  Cd3       1.0  0.512295236604466  0.3476572497107274  0.0065861254204558186  1.0000
  Cd  Cd4       1.0  0.23665782129564203  0.5234708608286771  0.9102518290876789  1.0000
  Sb  Sb1       1.0  0.8465139485576142  0.15879517718821207  0.49614308216798847  1.0000
  Sb  Sb2       1.0  0.23189351840898406  0.8749114747421017  0.5466349563156531  1.0000
  Sb  Sb3       1.0  0.7377805787879212  0.07378912544243496  0.04556381108537521  1.0000
  Sb  Sb4       1.0  0.10400448649907326  0.8242482125405026  0.04549992681947068  1.0000
  Sb  Sb5       1.0  0.4364471890149243  0.37162351173834585  0.3551879726430522  1.0000
  Sb  Sb6       1.0  0.7206865939232446  0.607987945823523  0.6492405974732754  1.0000
  Sb  Sb7       1.0  0.43263657556577856  0.45688106687045577  0.12192823606109875  1.0000
  Sb  Sb8       1.0  0.5287499334985326  0.6055493444155648  0.8488226552959979  1.0000
  Sb  Sb9       1.0  0.5867450386374563  0.18006501106227232  0.23920530280342023  1.0000
  Sb  Sb10      1.0  0.5002503120114413  0.851531246326324  0.7393357884636337  1.0000
  O   O1        1.0  0.2521663443918603  0.6168839731796768  0.2467834625062363  1.0000
  O   O2        1.0  0.8213473799160973  0.4606394436211844  0.7896110405930922  1.0000
data_image69
_chemical_formula_structural       Eu10Cd4Sb10O2
_chemical_formula_sum              "Eu10 Cd4 Sb10 O2"
_cell_length_a       11.24426501306804
_cell_length_b       11.24426501306804
_cell_length_c       14.850709
_cell_angle_alpha    90.0
_cell_angle_beta     90.0
_cell_angle_gamma    155.89846091665316

_space_group_name_H-M_alt    "P 1"
_space_group_IT_number       1

loop_
  _space_group_symop_operation_xyz
  'x, y, z'

loop_
  _atom_site_type_symbol
  _atom_site_label
  _atom_site_symmetry_multiplicity
  _atom_site_fract_x
  _atom_site_fract_y
  _atom_site_fract_z
  _atom_site_occupancy
  Eu  Eu1       1.0  0.7383037914973711  0.2899503120764208  0.9366388704495776  1.0000
  Eu  Eu2       1.0  0.2216745199857026  0.6874085171868628  0.10860032634965314  1.0000
  Eu  Eu3       1.0  0.8388447904936033  0.389907690402041  0.6508051620629438  1.0000
  Eu  Eu4       1.0  0.2821152641872345  0.7044562204736629  0.4064827443883679  1.0000
  Eu  Eu5       1.0  0.8037049277027001  0.0614337175810328  0.2506995977692534  1.0000
  Eu  Eu6       1.0  0.3318962825702462  0.0882212820116628  0.7777779465516055  1.0000
  Eu  Eu7       1.0  0.04995904248125177  0.9136817503627059  0.2032449060492551  1.0000
  Eu  Eu8       1.0  0.008834720859232537  0.13613662398592563  0.7012611943915572  1.0000
  Eu  Eu9       1.0  0.9647926922321112  0.8940864853627747  0.5053586263295438  1.0000
  Eu  Eu10      1.0  0.9442906138515712  0.99904967493449  0.9914945053533883  1.0000
  Cd  Cd1       1.0  0.7034191225871853  0.411104990024575  0.429464684736436  1.0000
  Cd  Cd2       1.0  0.3450851196301858  0.4874211853358991  0.5172977602899512  1.0000
  Cd  Cd3       1.0  0.5191222028137832  0.3646456918530076  0.9670259413894551  1.0000
  Cd  Cd4       1.0  0.16320094171723357  0.44916510405395654  0.9112286121097911  1.0000
  Sb  Sb1       1.0  0.8788549295863848  0.20290708522525133  0.5161811246629487  1.0000
  Sb  Sb2       1.0  0.18203867531942788  0.8695761025496525  0.5485531891448483  1.0000
  Sb  Sb3       1.0  0.7634962116361096  0.06977083557089045  0.0511771959292771  1.0000
  Sb  Sb4       1.0  0.0519959638419943  0.7865067152346243  0.035176774360887286  1.0000
  Sb  Sb5       1.0  0.5175343885701105  0.4904795447548382  0.36861813966581314  1.0000
  Sb  Sb6       1.0  0.72277490544815  0.5733980738281432  0.6635323883251426  1.0000
  Sb  Sb7       1.0  0.3749159598007343  0.4513362634875405  0.1371408177305214  1.0000
  Sb  Sb8       1.0  0.5062220451110953  0.5920921994500971  0.8240974040432824  1.0000
  Sb  Sb9       1.0  0.6199730721911751  0.26746619121997434  0.23377764884276786  1.0000
  Sb  Sb10      1.0  0.3821921566890118  0.7544240252494739  0.7364236130375342  1.0000
  O   O1        1.0  0.31293621125324417  0.6428707375494767  0.2594983157902247  1.0000
  O   O2        1.0  0.7646491760783233  0.3580873248582247  0.7911765855695094  1.0000
data_image70
_chemical_formula_structural       Eu10Cd4Sb10O2
_chemical_formula_sum              "Eu10 Cd4 Sb10 O2"
_cell_length_a       11.24426501306804
_cell_length_b       11.24426501306804
_cell_length_c       14.850709
_cell_angle_alpha    90.0
_cell_angle_beta     90.0
_cell_angle_gamma    155.89846091665316

_space_group_name_H-M_alt    "P 1"
_space_group_IT_number       1

loop_
  _space_group_symop_operation_xyz
  'x, y, z'

loop_
  _atom_site_type_symbol
  _atom_site_label
  _atom_site_symmetry_multiplicity
  _atom_site_fract_x
  _atom_site_fract_y
  _atom_site_fract_z
  _atom_site_occupancy
  Eu  Eu1       1.0  0.676863332473123  0.21281651432612558  0.9132037019816901  1.0000
  Eu  Eu2       1.0  0.1855288439324714  0.6765337957180378  0.14439944735287225  1.0000
  Eu  Eu3       1.0  0.8104567427436008  0.343001746120603  0.654966666174535  1.0000
  Eu  Eu4       1.0  0.3686402907282819  0.8372933580936535  0.4285085295898236  1.0000
  Eu  Eu5       1.0  0.8919932987817099  0.12548023421969082  0.24082854540115348  1.0000
  Eu  Eu6       1.0  0.3227167523919068  0.050846603470694474  0.7742593818866241  1.0000
  Eu  Eu7       1.0  0.04347926071953091  0.9076792501255462  0.20351374634785135  1.0000
  Eu  Eu8       1.0  0.9606159376287241  0.1011925004178252  0.698753461663559  1.0000
  Eu  Eu9       1.0  0.9845949951373895  0.9252073782086716  0.48887898442673255  1.0000
  Eu  Eu10      1.0  0.9593340641663013  0.9847066751833728  0.980019469110014  1.0000
  Cd  Cd1       1.0  0.7052043304595201  0.4038950656380491  0.44963207575816877  1.0000
  Cd  Cd2       1.0  0.39377605735060073  0.5540638840400975  0.4992819906344568  1.0000
  Cd  Cd3       1.0  0.5394310497642419  0.4053733349744984  0.9462522148896148  1.0000
  Cd  Cd4       1.0  0.11360345145334357  0.3871300873660505  0.8785119951028107  1.0000
  Sb  Sb1       1.0  0.7631062259398901  0.07745147759826125  0.5657687595978003  1.0000
  Sb  Sb2       1.0  0.27553155872137725  0.9485010491767915  0.5619296042037736  1.0000
  Sb  Sb3       1.0  0.7717003391749805  0.08958577267453659  0.0473035006456459  1.0000
  Sb  Sb4       1.0  0.14551411932605096  0.8679720552226505  0.9972353042091311  1.0000
  Sb  Sb5       1.0  0.47100789414268535  0.4154469140190848  0.3537933036590258  1.0000
  Sb  Sb6       1.0  0.6720264351031664  0.5734988136669892  0.6713126338212788  1.0000
  Sb  Sb7       1.0  0.38194654079766455  0.4539083879628587  0.15026658879505345  1.0000
  Sb  Sb8       1.0  0.46476376406486514  0.5170411389379487  0.8432638241219895  1.0000
  Sb  Sb9       1.0  0.6345860331867241  0.30760004286899467  0.2339921028503198  1.0000
  Sb  Sb10      1.0  0.3625497701329524  0.7454398213472367  0.7376865445928612  1.0000
  O   O1        1.0  0.3439841318756718  0.7529708482213664  0.2934210833314512  1.0000
  O   O2        1.0  0.8551014468279063  0.45955683044565354  0.804015903749517  1.0000
data_image71
_chemical_formula_structural       Eu10Cd4Sb10O2
_chemical_formula_sum              "Eu10 Cd4 Sb10 O2"
_cell_length_a       11.24426501306804
_cell_length_b       11.24426501306804
_cell_length_c       14.850709
_cell_angle_alpha    90.0
_cell_angle_beta     90.0
_cell_angle_gamma    155.89846091665316

_space_group_name_H-M_alt    "P 1"
_space_group_IT_number       1

loop_
  _space_group_symop_operation_xyz
  'x, y, z'

loop_
  _atom_site_type_symbol
  _atom_site_label
  _atom_site_symmetry_multiplicity
  _atom_site_fract_x
  _atom_site_fract_y
  _atom_site_fract_z
  _atom_site_occupancy
  Eu  Eu1       1.0  0.6923918260387908  0.1873010081238048  0.8936511914953214  1.0000
  Eu  Eu2       1.0  0.26068406057651056  0.7865693813870552  0.19352534757328468  1.0000
  Eu  Eu3       1.0  0.8407774096050629  0.3641066331482349  0.6740753037540375  1.0000
  Eu  Eu4       1.0  0.32757243502251826  0.8233362415767919  0.41757808653736705  1.0000
  Eu  Eu5       1.0  0.8274752928308229  0.07923525221970301  0.2423368859734363  1.0000
  Eu  Eu6       1.0  0.15618063676652064  0.8892224213700894  0.7673880356866202  1.0000
  Eu  Eu7       1.0  0.07562540993395825  0.9291797972820799  0.19031465051247687  1.0000
  Eu  Eu8       1.0  0.01808000188198977  0.14660128763974836  0.7178652773157236  1.0000
  Eu  Eu9       1.0  0.024514037790010566  0.9869026510687833  0.49034176661265827  1.0000
  Eu  Eu10      1.0  0.9632994640738378  0.002741491140019991  0.9820782724190337  1.0000
  Cd  Cd1       1.0  0.7729510342534698  0.4448715438813023  0.4362094229238246  1.0000
  Cd  Cd2       1.0  0.39536364266128504  0.5693060010597152  0.48439537383241876  1.0000
  Cd  Cd3       1.0  0.5973129263140323  0.41541417988084517  0.9826063208258062  1.0000
  Cd  Cd4       1.0  0.0882670509835816  0.3670274112553472  0.894855420916517  1.0000
  Sb  Sb1       1.0  0.729435373195593  0.04469109949210571  0.5586593984906373  1.0000
  Sb  Sb2       1.0  0.2015509383245796  0.8858421866234601  0.5654696392528816  1.0000
  Sb  Sb3       1.0  0.733680958350444  0.05016535797175998  0.03385391126430469  1.0000
  Sb  Sb4       1.0  0.11248984577893802  0.8148886616470804  0.9817194475905704  1.0000
  Sb  Sb5       1.0  0.4553925725489535  0.38583677384871334  0.35344465709667966  1.0000
  Sb  Sb6       1.0  0.662964946806746  0.5886101283233932  0.6519447915747963  1.0000
  Sb  Sb7       1.0  0.39459920984490954  0.4628783219888791  0.13255561064875956  1.0000
  Sb  Sb8       1.0  0.5552901735076535  0.608579725302781  0.8249002892338494  1.0000
  Sb  Sb9       1.0  0.6937287132332842  0.35560849572164094  0.25470277894816123  1.0000
  Sb  Sb10      1.0  0.37306774774360085  0.7568969106826257  0.7300919369342768  1.0000
  O   O1        1.0  0.3504517129498838  0.7400499347224041  0.3065625753956813  1.0000
  O   O2        1.0  0.5530019977641165  0.20326182978674087  0.8006366729890908  1.0000
data_image72
_chemical_formula_structural       Eu10Cd4Sb10O2
_chemical_formula_sum              "Eu10 Cd4 Sb10 O2"
_cell_length_a       11.24426501306804
_cell_length_b       11.24426501306804
_cell_length_c       14.850709
_cell_angle_alpha    90.0
_cell_angle_beta     90.0
_cell_angle_gamma    155.89846091665316

_space_group_name_H-M_alt    "P 1"
_space_group_IT_number       1

loop_
  _space_group_symop_operation_xyz
  'x, y, z'

loop_
  _atom_site_type_symbol
  _atom_site_label
  _atom_site_symmetry_multiplicity
  _atom_site_fract_x
  _atom_site_fract_y
  _atom_site_fract_z
  _atom_site_occupancy
  Eu  Eu1       1.0  0.6239443761858148  0.1832161611159762  0.9026746989229957  1.0000
  Eu  Eu2       1.0  0.3507949016051944  0.8605503915004161  0.16234438466109974  1.0000
  Eu  Eu3       1.0  0.7883043008474534  0.3020024979936007  0.6745141359247404  1.0000
  Eu  Eu4       1.0  0.4360146148025579  0.9184065600136736  0.3990552580980403  1.0000
  Eu  Eu5       1.0  0.8480784501474792  0.10608529954668454  0.2469098471036541  1.0000
  Eu  Eu6       1.0  0.9914250653355584  0.7650056458809383  0.7633849759173376  1.0000
  Eu  Eu7       1.0  0.08401440636984851  0.9465129170414157  0.1909045710518017  1.0000
  Eu  Eu8       1.0  0.01604766324816298  0.15450895984398452  0.6975277507109895  1.0000
  Eu  Eu9       1.0  0.06851035717374161  0.030463549261263552  0.5125070882046769  1.0000
  Eu  Eu10      1.0  0.987094329536971  0.03540335762544179  0.995683362229748  1.0000
  Cd  Cd1       1.0  0.7091404049343535  0.39388539574475084  0.4548464804676462  1.0000
  Cd  Cd2       1.0  0.34227520943586365  0.5104424741549008  0.4697054655886428  1.0000
  Cd  Cd3       1.0  0.5473934359726391  0.381010985599069  0.9999391756010849  1.0000
  Cd  Cd4       1.0  0.14799241301220226  0.41580144580550726  0.9101029657737233  1.0000
  Sb  Sb1       1.0  0.7786243008658126  0.06962309823139656  0.5185804941130135  1.0000
  Sb  Sb2       1.0  0.18399039600393305  0.8736067703509812  0.5629899178459915  1.0000
  Sb  Sb3       1.0  0.6684237869694704  0.992983452749828  0.055336824801021804  1.0000
  Sb  Sb4       1.0  0.08851129531027221  0.7427931824836678  0.9766547919186228  1.0000
  Sb  Sb5       1.0  0.5906987224122756  0.5235298374583965  0.352932548569817  1.0000
  Sb  Sb6       1.0  0.5486483678179666  0.4874197048882976  0.6462623438905685  1.0000
  Sb  Sb7       1.0  0.445068422715441  0.5151446855503568  0.13388677439051944  1.0000
  Sb  Sb8       1.0  0.5973614947900567  0.6274873601257289  0.8196180304139374  1.0000
  Sb  Sb9       1.0  0.7123371351311858  0.35187149991005917  0.2633377346700643  1.0000
  Sb  Sb10      1.0  0.38903457251418294  0.7251349802986072  0.7548400320349746  1.0000
  O   O1        1.0  0.3614821449570801  0.7138609132487947  0.2963455944280075  1.0000
  O   O2        1.0  0.5296603288396742  0.2240629423210952  0.7978585624864112  1.0000
data_image73
_chemical_formula_structural       Eu10Cd4Sb10O2
_chemical_formula_sum              "Eu10 Cd4 Sb10 O2"
_cell_length_a       11.24426501306804
_cell_length_b       11.24426501306804
_cell_length_c       14.850709
_cell_angle_alpha    90.0
_cell_angle_beta     90.0
_cell_angle_gamma    155.89846091665316

_space_group_name_H-M_alt    "P 1"
_space_group_IT_number       1

loop_
  _space_group_symop_operation_xyz
  'x, y, z'

loop_
  _atom_site_type_symbol
  _atom_site_label
  _atom_site_symmetry_multiplicity
  _atom_site_fract_x
  _atom_site_fract_y
  _atom_site_fract_z
  _atom_site_occupancy
  Eu  Eu1       1.0  0.5340022261070593  0.0828797824127906  0.8974868822503899  1.0000
  Eu  Eu2       1.0  0.27065426526602265  0.7563666464381843  0.1369770662215281  1.0000
  Eu  Eu3       1.0  0.7524428582166306  0.25981156390417276  0.6548568129766806  1.0000
  Eu  Eu4       1.0  0.4198571118049709  0.9011749987435288  0.37853307346414944  1.0000
  Eu  Eu5       1.0  0.9135538003878425  0.1691635395293298  0.2834176474852558  1.0000
  Eu  Eu6       1.0  0.0025814353420006014  0.7915163665869369  0.782945728072575  1.0000
  Eu  Eu7       1.0  0.04119088959408275  0.898726549058101  0.20300027690564101  1.0000
  Eu  Eu8       1.0  0.04321323314151293  0.21380199441985537  0.7072822248480916  1.0000
  Eu  Eu9       1.0  0.12601664647205846  0.08158352462607574  0.5074858743603167  1.0000
  Eu  Eu10      1.0  0.000442229849704957  0.042521471622916536  0.9679444103437436  1.0000
  Cd  Cd1       1.0  0.6246617277264837  0.3427245142626514  0.4591232300512892  1.0000
  Cd  Cd2       1.0  0.4180078056986711  0.5710842702817868  0.44991530102478705  1.0000
  Cd  Cd3       1.0  0.5081405623844959  0.35606209670215894  0.9870129063644946  1.0000
  Cd  Cd4       1.0  0.2171421878390043  0.4998513248561495  0.9161982599580595  1.0000
  Sb  Sb1       1.0  0.845726539596746  0.11318611234527103  0.5107099991254911  1.0000
  Sb  Sb2       1.0  0.10277597862028146  0.7707714067346931  0.5789864764171235  1.0000
  Sb  Sb3       1.0  0.7070161042029685  0.9969431534933133  0.04034078157692627  1.0000
  Sb  Sb4       1.0  0.9608016268604195  0.6415134871513394  0.019110905625084218  1.0000
  Sb  Sb5       1.0  0.6711597281549837  0.6124261836874401  0.3564404905387799  1.0000
  Sb  Sb6       1.0  0.5519827238760276  0.47177728437896527  0.6470390070204296  1.0000
  Sb  Sb7       1.0  0.4772637917817265  0.5396154251002125  0.13328384066971907  1.0000
  Sb  Sb8       1.0  0.5288689349662968  0.6066045687331106  0.8351349497632897  1.0000
  Sb  Sb9       1.0  0.7738608540274732  0.399496201115236  0.260394500769213  1.0000
  Sb  Sb10      1.0  0.4703752567381504  0.8242374573858454  0.7639153960895344  1.0000
  O   O1        1.0  0.42591481334065207  0.7882639105580452  0.2619954294247647  1.0000
  O   O2        1.0  0.5027427056045429  0.14128010562344145  0.7697061273812194  1.0000
data_image74
_chemical_formula_structural       Eu10Cd4Sb10O2
_chemical_formula_sum              "Eu10 Cd4 Sb10 O2"
_cell_length_a       11.24426501306804
_cell_length_b       11.24426501306804
_cell_length_c       14.850709
_cell_angle_alpha    90.0
_cell_angle_beta     90.0
_cell_angle_gamma    155.89846091665316

_space_group_name_H-M_alt    "P 1"
_space_group_IT_number       1

loop_
  _space_group_symop_operation_xyz
  'x, y, z'

loop_
  _atom_site_type_symbol
  _atom_site_label
  _atom_site_symmetry_multiplicity
  _atom_site_fract_x
  _atom_site_fract_y
  _atom_site_fract_z
  _atom_site_occupancy
  Eu  Eu1       1.0  0.5057373295999679  0.03156491855228582  0.9033184804993544  1.0000
  Eu  Eu2       1.0  0.20344154640074935  0.6466201923408017  0.13624165780288866  1.0000
  Eu  Eu3       1.0  0.728317623239828  0.23664911604675176  0.6478542346662639  1.0000
  Eu  Eu4       1.0  0.3142326276647069  0.780000613374506  0.3996949568253573  1.0000
  Eu  Eu5       1.0  0.9202293566230895  0.18780630341650165  0.26692672198268014  1.0000
  Eu  Eu6       1.0  0.06428651226266083  0.8419552549780697  0.7911486205831932  1.0000
  Eu  Eu7       1.0  0.13271694393689107  0.9770465538622255  0.21573233566164118  1.0000
  Eu  Eu8       1.0  0.017551480894117066  0.18977480034004243  0.7020968930385826  1.0000
  Eu  Eu9       1.0  0.11994695432587522  0.08700684454413667  0.49439910927959296  1.0000
  Eu  Eu10      1.0  0.9983036726690933  0.05749147051526385  0.9718304912820674  1.0000
  Cd  Cd1       1.0  0.6200140764640282  0.335375828589314  0.45977849977441687  1.0000
  Cd  Cd2       1.0  0.48000939701260237  0.6596978828887625  0.39179005376992704  1.0000
  Cd  Cd3       1.0  0.5604424043926152  0.4237839129560066  0.9624393449799332  1.0000
  Cd  Cd4       1.0  0.2702237167636154  0.57133948669609  0.9375391864801705  1.0000
  Sb  Sb1       1.0  0.8863839904604334  0.1798994579087074  0.5177444137792085  1.0000
  Sb  Sb2       1.0  0.13101132154128917  0.8293296873574054  0.5773057319400176  1.0000
  Sb  Sb3       1.0  0.7863873369101132  0.09290308017325241  0.04824631606637861  1.0000
  Sb  Sb4       1.0  0.9341747781038154  0.6189470199341645  0.027606505410886273  1.0000
  Sb  Sb5       1.0  0.601737611377933  0.5298846873385414  0.34129133606164386  1.0000
  Sb  Sb6       1.0  0.5493093291696077  0.46206104284711264  0.6634160401253852  1.0000
  Sb  Sb7       1.0  0.4348426034940392  0.47929191131331794  0.1473604511295467  1.0000
  Sb  Sb8       1.0  0.5373447152866775  0.6016598108825834  0.8208441057792676  1.0000
  Sb  Sb9       1.0  0.7705430756926209  0.39610985711407415  0.2798193220196098  1.0000
  Sb  Sb10      1.0  0.44275550252762785  0.7953334557383903  0.7661669150044922  1.0000
  O   O1        1.0  0.29562721022329824  0.6447831336459175  0.2523265258219834  1.0000
  O   O2        1.0  0.5695505294341227  0.225451595990843  0.7801512922031535  1.0000
data_image75
_chemical_formula_structural       Eu10Cd4Sb10O2
_chemical_formula_sum              "Eu10 Cd4 Sb10 O2"
_cell_length_a       11.24426501306804
_cell_length_b       11.24426501306804
_cell_length_c       14.850709
_cell_angle_alpha    90.0
_cell_angle_beta     90.0
_cell_angle_gamma    155.89846091665316

_space_group_name_H-M_alt    "P 1"
_space_group_IT_number       1

loop_
  _space_group_symop_operation_xyz
  'x, y, z'

loop_
  _atom_site_type_symbol
  _atom_site_label
  _atom_site_symmetry_multiplicity
  _atom_site_fract_x
  _atom_site_fract_y
  _atom_site_fract_z
  _atom_site_occupancy
  Eu  Eu1       1.0  0.5523997912063295  0.06238430099602139  0.9171978330735825  1.0000
  Eu  Eu2       1.0  0.1985112087243975  0.6700139379022088  0.15285659320975  1.0000
  Eu  Eu3       1.0  0.6958296663952774  0.24312837704602883  0.6408465213578428  1.0000
  Eu  Eu4       1.0  0.23620117847930816  0.704328486002342  0.4267563552751483  1.0000
  Eu  Eu5       1.0  0.932566762850769  0.21507637258598325  0.2548601678048787  1.0000
  Eu  Eu6       1.0  0.08281151892093545  0.8253013655462708  0.7904192772386972  1.0000
  Eu  Eu7       1.0  0.134045613791735  0.9270855046028775  0.22043394993957058  1.0000
  Eu  Eu8       1.0  0.01802183368223287  0.17254411900582342  0.6883987957125552  1.0000
  Eu  Eu9       1.0  0.0810680843986368  0.10643244910288417  0.4974056738901176  1.0000
  Eu  Eu10      1.0  0.8908683619585686  0.9526380942380133  0.9914780993818688  1.0000
  Cd  Cd1       1.0  0.6594375115885663  0.3640475171471885  0.46120846978949476  1.0000
  Cd  Cd2       1.0  0.558257054633801  0.7432466675391578  0.3972569535548259  1.0000
  Cd  Cd3       1.0  0.5407600320851835  0.4002292899764658  0.9584770053845901  1.0000
  Cd  Cd4       1.0  0.24733957083355038  0.519980134368664  0.9417967526806158  1.0000
  Sb  Sb1       1.0  0.9283058332647585  0.20851001507855535  0.49281740852417366  1.0000
  Sb  Sb2       1.0  0.17859749709904318  0.8716858468199261  0.5643571292043699  1.0000
  Sb  Sb3       1.0  0.7608631993397462  0.11378080043890175  0.06488921350437449  1.0000
  Sb  Sb4       1.0  0.9876795892695135  0.6510147465059564  0.0032258353641316795  1.0000
  Sb  Sb5       1.0  0.5680203987260475  0.516170401989772  0.33063398691000984  1.0000
  Sb  Sb6       1.0  0.6623512744704481  0.605080903954748  0.6417530895015424  1.0000
  Sb  Sb7       1.0  0.43603786456370186  0.49689192927028186  0.14616195808541677  1.0000
  Sb  Sb8       1.0  0.6099196372470886  0.6444280607495633  0.8293233274769954  1.0000
  Sb  Sb9       1.0  0.7178042377818828  0.3150910172264029  0.2936130986002975  1.0000
  Sb  Sb10      1.0  0.3829865943753202  0.7268077108674179  0.7543878491687108  1.0000
  O   O1        1.0  0.38991825438755046  0.7320030774923183  0.26393012590694304  1.0000
  O   O2        1.0  0.4889301714721294  0.12424743990756071  0.7591555513862653  1.0000
data_image76
_chemical_formula_structural       Eu10Cd4Sb10O2
_chemical_formula_sum              "Eu10 Cd4 Sb10 O2"
_cell_length_a       11.24426501306804
_cell_length_b       11.24426501306804
_cell_length_c       14.850709
_cell_angle_alpha    90.0
_cell_angle_beta     90.0
_cell_angle_gamma    155.89846091665316

_space_group_name_H-M_alt    "P 1"
_space_group_IT_number       1

loop_
  _space_group_symop_operation_xyz
  'x, y, z'

loop_
  _atom_site_type_symbol
  _atom_site_label
  _atom_site_symmetry_multiplicity
  _atom_site_fract_x
  _atom_site_fract_y
  _atom_site_fract_z
  _atom_site_occupancy
  Eu  Eu1       1.0  0.6709018188688518  0.1816985334099477  0.8990160318703763  1.0000
  Eu  Eu2       1.0  0.27230558503976376  0.8199711905104248  0.17787699941842974  1.0000
  Eu  Eu3       1.0  0.726835257722483  0.22592386551018137  0.6322487609305527  1.0000
  Eu  Eu4       1.0  0.2775915108243232  0.7577367133014129  0.42931657574144166  1.0000
  Eu  Eu5       1.0  0.9687372075338213  0.2450761395663565  0.26028375672868154  1.0000
  Eu  Eu6       1.0  0.9937945744810643  0.7402912434021908  0.7852036460870049  1.0000
  Eu  Eu7       1.0  0.011048426113996257  0.8157355643094312  0.21323405776828594  1.0000
  Eu  Eu8       1.0  0.9934265955631121  0.14373792191510001  0.7158674800862705  1.0000
  Eu  Eu9       1.0  0.0996617791297663  0.09233626463207728  0.4928630915269115  1.0000
  Eu  Eu10      1.0  0.8669063152959324  0.9515830971940035  0.018307646506320135  1.0000
  Cd  Cd1       1.0  0.587979713180563  0.3339770204996027  0.45751199778370355  1.0000
  Cd  Cd2       1.0  0.5738923313944463  0.7567484221217917  0.3980927696944717  1.0000
  Cd  Cd3       1.0  0.5247105780541963  0.3536980180082393  0.9554126660243605  1.0000
  Cd  Cd4       1.0  0.2762024676107345  0.5057751032456448  0.9176088845783384  1.0000
  Sb  Sb1       1.0  0.03834213874876857  0.3318141511613734  0.4999563242780698  1.0000
  Sb  Sb2       1.0  0.10832184603832862  0.7959480452812431  0.566154246668088  1.0000
  Sb  Sb3       1.0  0.7590692795098171  0.10747113954498416  0.06612621104921139  1.0000
  Sb  Sb4       1.0  0.04358278175641318  0.7226869081535604  0.9941205088398398  1.0000
  Sb  Sb5       1.0  0.5607593072569961  0.4823177470511678  0.32774481122933935  1.0000
  Sb  Sb6       1.0  0.6688919394390768  0.6305025817231154  0.6289502939337487  1.0000
  Sb  Sb7       1.0  0.4388531483707809  0.4815115709276236  0.14856625891892633  1.0000
  Sb  Sb8       1.0  0.46956715906712254  0.4838301389292264  0.8289402073537095  1.0000
  Sb  Sb9       1.0  0.7769334205296772  0.34831226111638214  0.2995016700891809  1.0000
  Sb  Sb10      1.0  0.3262358635857188  0.7034329561113627  0.7258790038483686  1.0000
  O   O1        1.0  0.32610595433569844  0.7128066855390074  0.3056005104959432  1.0000
  O   O2        1.0  0.614476255616142  0.25645275767561493  0.7861574609395746  1.0000
data_image77
_chemical_formula_structural       Eu10Cd4Sb10O2
_chemical_formula_sum              "Eu10 Cd4 Sb10 O2"
_cell_length_a       11.24426501306804
_cell_length_b       11.24426501306804
_cell_length_c       14.850709
_cell_angle_alpha    90.0
_cell_angle_beta     90.0
_cell_angle_gamma    155.89846091665316

_space_group_name_H-M_alt    "P 1"
_space_group_IT_number       1

loop_
  _space_group_symop_operation_xyz
  'x, y, z'

loop_
  _atom_site_type_symbol
  _atom_site_label
  _atom_site_symmetry_multiplicity
  _atom_site_fract_x
  _atom_site_fract_y
  _atom_site_fract_z
  _atom_site_occupancy
  Eu  Eu1       1.0  0.7155229324830292  0.2075389652381977  0.863428070384744  1.0000
  Eu  Eu2       1.0  0.3215389194151351  0.8083847607415448  0.1812243213715827  1.0000
  Eu  Eu3       1.0  0.7202661435091305  0.23275276055077387  0.6316163855447922  1.0000
  Eu  Eu4       1.0  0.29842043984295813  0.786516557425481  0.4117211741038625  1.0000
  Eu  Eu5       1.0  0.9489951642379967  0.22828801735982404  0.2656585614991129  1.0000
  Eu  Eu6       1.0  0.959066368650375  0.7216772056992985  0.7747271210789071  1.0000
  Eu  Eu7       1.0  0.9898437886524927  0.8137140170240967  0.1912121061742929  1.0000
  Eu  Eu8       1.0  0.9762196300258661  0.14074419928879814  0.705105663953923  1.0000
  Eu  Eu9       1.0  0.15857970402703486  0.09589825175416954  0.497225283508948  1.0000
  Eu  Eu10      1.0  0.8546989132923679  0.9245696378717586  0.01482146081348928  1.0000
  Cd  Cd1       1.0  0.65343961690945  0.36160061870793203  0.47376773073480544  1.0000
  Cd  Cd2       1.0  0.5842163391800885  0.7413278345589361  0.4405761369501533  1.0000
  Cd  Cd3       1.0  0.42610769907975327  0.23872201362943238  0.9605192660354279  1.0000
  Cd  Cd4       1.0  0.3609257712462522  0.6450394993285081  0.899178039258361  1.0000
  Sb  Sb1       1.0  0.056499509753109134  0.3305703867962921  0.5123007654805564  1.0000
  Sb  Sb2       1.0  0.13588923085161966  0.8248569965605224  0.5777992556248942  1.0000
  Sb  Sb3       1.0  0.8281768365646649  0.19446214288132077  0.06625911590750154  1.0000
  Sb  Sb4       1.0  0.05021470304951863  0.7439040189911629  0.9866930108422148  1.0000
  Sb  Sb5       1.0  0.6052989411503898  0.5498202907614865  0.3524124910633695  1.0000
  Sb  Sb6       1.0  0.5876565490577712  0.5806866444215706  0.6260020819946306  1.0000
  Sb  Sb7       1.0  0.3667932811788771  0.40682619442539547  0.1712590646942861  1.0000
  Sb  Sb8       1.0  0.4157679972105698  0.4063284603902992  0.803839878396178  1.0000
  Sb  Sb9       1.0  0.7394242689727706  0.3509101773291839  0.3145572705396459  1.0000
  Sb  Sb10      1.0  0.25299801988260345  0.6722177856006031  0.7428778423883943  1.0000
  O   O1        1.0  0.43286031989844725  0.7754977165942702  0.29845437568997546  1.0000
  O   O2        1.0  0.6504972024326665  0.29383123677882605  0.7798854057546035  1.0000
data_image78
_chemical_formula_structural       Eu10Cd4Sb10O2
_chemical_formula_sum              "Eu10 Cd4 Sb10 O2"
_cell_length_a       11.24426501306804
_cell_length_b       11.24426501306804
_cell_length_c       14.850709
_cell_angle_alpha    90.0
_cell_angle_beta     90.0
_cell_angle_gamma    155.89846091665316

_space_group_name_H-M_alt    "P 1"
_space_group_IT_number       1

loop_
  _space_group_symop_operation_xyz
  'x, y, z'

loop_
  _atom_site_type_symbol
  _atom_site_label
  _atom_site_symmetry_multiplicity
  _atom_site_fract_x
  _atom_site_fract_y
  _atom_site_fract_z
  _atom_site_occupancy
  Eu  Eu1       1.0  0.6453991831495111  0.1883005210791362  0.8650626251372415  1.0000
  Eu  Eu2       1.0  0.321304522603772  0.7799253676978226  0.16301258081639944  1.0000
  Eu  Eu3       1.0  0.7769210412266828  0.28708449705947153  0.6244023496550175  1.0000
  Eu  Eu4       1.0  0.3992914451199344  0.848596695506549  0.39899937054065926  1.0000
  Eu  Eu5       1.0  0.936078392843152  0.2028220975671883  0.2657386092652616  1.0000
  Eu  Eu6       1.0  0.9257736898343056  0.7148800623310341  0.7780563170742573  1.0000
  Eu  Eu7       1.0  0.9791360788160821  0.8369419292447461  0.1645117880666554  1.0000
  Eu  Eu8       1.0  0.9864941484569378  0.16270756089671015  0.7012116846710511  1.0000
  Eu  Eu9       1.0  0.15054827440099036  0.06069204275867586  0.48689583758592075  1.0000
  Eu  Eu10      1.0  0.8048801019788303  0.8560878207359006  0.020355217298677418  1.0000
  Cd  Cd1       1.0  0.6297109044618066  0.3148588793230743  0.4791941661822067  1.0000
  Cd  Cd2       1.0  0.578704925383756  0.7404411019602687  0.46001391295765165  1.0000
  Cd  Cd3       1.0  0.39464974252222107  0.23408216424110875  0.9691132677667851  1.0000
  Cd  Cd4       1.0  0.3534766952042208  0.6221022943987996  0.9327480172028604  1.0000
  Sb  Sb1       1.0  0.08409611361800629  0.3554235914191429  0.5375261398217593  1.0000
  Sb  Sb2       1.0  0.14426297145350944  0.8270777351102578  0.5834034432143193  1.0000
  Sb  Sb3       1.0  0.8667293536803055  0.2576846017095553  0.04823497222269793  1.0000
  Sb  Sb4       1.0  0.03468114690535827  0.6965513838440696  0.01665282475930341  1.0000
  Sb  Sb5       1.0  0.6378540631017862  0.6011741683544438  0.3286073826954472  1.0000
  Sb  Sb6       1.0  0.5267695724447553  0.5204162277936013  0.624502593135893  1.0000
  Sb  Sb7       1.0  0.34473161902286337  0.39976141104353774  0.17733960665700388  1.0000
  Sb  Sb8       1.0  0.3650650454840622  0.33714288625201055  0.8254719576518348  1.0000
  Sb  Sb9       1.0  0.8580008342969577  0.4758924284306046  0.28218427327488854  1.0000
  Sb  Sb10      1.0  0.27894787512002994  0.7048411476342997  0.7589121678066942  1.0000
  O   O1        1.0  0.4497121691412627  0.7649198083187739  0.28412055286412446  1.0000
  O   O2        1.0  0.49349495607952076  0.16663212835375954  0.7446602264191867  1.0000
data_image79
_chemical_formula_structural       Eu10Cd4Sb10O2
_chemical_formula_sum              "Eu10 Cd4 Sb10 O2"
_cell_length_a       11.24426501306804
_cell_length_b       11.24426501306804
_cell_length_c       14.850709
_cell_angle_alpha    90.0
_cell_angle_beta     90.0
_cell_angle_gamma    155.89846091665316

_space_group_name_H-M_alt    "P 1"
_space_group_IT_number       1

loop_
  _space_group_symop_operation_xyz
  'x, y, z'

loop_
  _atom_site_type_symbol
  _atom_site_label
  _atom_site_symmetry_multiplicity
  _atom_site_fract_x
  _atom_site_fract_y
  _atom_site_fract_z
  _atom_site_occupancy
  Eu  Eu1       1.0  0.6727357420159495  0.21610878326010358  0.8835634293009873  1.0000
  Eu  Eu2       1.0  0.34016436201817296  0.7932457383272467  0.1580854856594796  1.0000
  Eu  Eu3       1.0  0.7525316628480427  0.27741509506681356  0.6347400180825646  1.0000
  Eu  Eu4       1.0  0.3680094375993904  0.7864553612164861  0.40259766095581784  1.0000
  Eu  Eu5       1.0  0.9519604052429408  0.22310613370042234  0.28988748113576496  1.0000
  Eu  Eu6       1.0  0.9436629640337416  0.7412823032007834  0.758047770105546  1.0000
  Eu  Eu7       1.0  0.9845894470880311  0.8477306679797696  0.1783267333807848  1.0000
  Eu  Eu8       1.0  0.9039953591335562  0.08874920115356205  0.7186816180517535  1.0000
  Eu  Eu9       1.0  0.10222472975404477  0.04832094130744203  0.4795483055210389  1.0000
  Eu  Eu10      1.0  0.8310468268239569  0.9146736468996124  0.0071433064857704  1.0000
  Cd  Cd1       1.0  0.627042630774338  0.3359697220627909  0.43225579346516513  1.0000
  Cd  Cd2       1.0  0.6497596395397641  0.797008094831445  0.4772970278011997  1.0000
  Cd  Cd3       1.0  0.44634143083267136  0.2696278123940137  0.006986951924155145  1.0000
  Cd  Cd4       1.0  0.32176908538738447  0.5960208381848232  0.9201091405447526  1.0000
  Sb  Sb1       1.0  0.035852322214550814  0.31802600720885743  0.5135955005299508  1.0000
  Sb  Sb2       1.0  0.1376305471130458  0.8256239475750836  0.5492858963655062  1.0000
  Sb  Sb3       1.0  0.8663795043689072  0.22493341683356477  0.023607447715282538  1.0000
  Sb  Sb4       1.0  0.051714708505458375  0.7302908584488237  0.016901079296221422  1.0000
  Sb  Sb5       1.0  0.525108056492662  0.44271390473861316  0.32542154721845873  1.0000
  Sb  Sb6       1.0  0.6307661040681372  0.634810666939748  0.636647248038782  1.0000
  Sb  Sb7       1.0  0.4114665217818288  0.46539220854135427  0.17013190349358145  1.0000
  Sb  Sb8       1.0  0.3576005946215878  0.3552014626941249  0.8381615588444505  1.0000
  Sb  Sb9       1.0  0.822665391270446  0.4157695689559025  0.28085065108934804  1.0000
  Sb  Sb10      1.0  0.28019923194222834  0.662924487643409  0.780244168614159  1.0000
  O   O1        1.0  0.4484940527787289  0.7212127638289715  0.26124550926326295  1.0000
  O   O2        1.0  0.7478697961861877  0.3683041313752161  0.753840583777209  1.0000
data_image80
_chemical_formula_structural       Eu10Cd4Sb10O2
_chemical_formula_sum              "Eu10 Cd4 Sb10 O2"
_cell_length_a       11.24426501306804
_cell_length_b       11.24426501306804
_cell_length_c       14.850709
_cell_angle_alpha    90.0
_cell_angle_beta     90.0
_cell_angle_gamma    155.89846091665316

_space_group_name_H-M_alt    "P 1"
_space_group_IT_number       1

loop_
  _space_group_symop_operation_xyz
  'x, y, z'

loop_
  _atom_site_type_symbol
  _atom_site_label
  _atom_site_symmetry_multiplicity
  _atom_site_fract_x
  _atom_site_fract_y
  _atom_site_fract_z
  _atom_site_occupancy
  Eu  Eu1       1.0  0.6498071011731759  0.1773327996970114  0.894013546914405  1.0000
  Eu  Eu2       1.0  0.3538497753330039  0.800524259777885  0.1615320416070603  1.0000
  Eu  Eu3       1.0  0.7008702090503603  0.23975069306793592  0.613315263233034  1.0000
  Eu  Eu4       1.0  0.37683190666708644  0.8090918761029925  0.40807593895982536  1.0000
  Eu  Eu5       1.0  0.9330315541432567  0.2053043028277057  0.2932223019297939  1.0000
  Eu  Eu6       1.0  0.02721676407152203  0.8357287341194388  0.7718732054008532  1.0000
  Eu  Eu7       1.0  0.08122206412379898  0.9092401561590032  0.18926287922057103  1.0000
  Eu  Eu8       1.0  0.8557005311033622  0.04042461682534926  0.7278510937403782  1.0000
  Eu  Eu9       1.0  0.15956534778007053  0.1436103443769252  0.49798178559568484  1.0000
  Eu  Eu10      1.0  0.9098949635951361  0.9894581636864204  0.9970982262937429  1.0000
  Cd  Cd1       1.0  0.63113757702681  0.34493555073272436  0.43424339641836673  1.0000
  Cd  Cd2       1.0  0.5647199763120766  0.6906823530071794  0.4629427067084364  1.0000
  Cd  Cd3       1.0  0.4509366298732863  0.2928002719623922  0.012066852748598726  1.0000
  Cd  Cd4       1.0  0.3465385185492214  0.5985535924513566  0.9445286357061177  1.0000
  Sb  Sb1       1.0  0.9445113784598648  0.2446983205840016  0.5095473621081658  1.0000
  Sb  Sb2       1.0  0.1276468010811499  0.8317998267648385  0.5533066905073464  1.0000
  Sb  Sb3       1.0  0.8160626347943458  0.14824692376413315  0.04189659336187222  1.0000
  Sb  Sb4       1.0  0.037183533310272264  0.7443789765300612  0.9983694819250125  1.0000
  Sb  Sb5       1.0  0.49281639217579204  0.4450128518299169  0.31970081071385253  1.0000
  Sb  Sb6       1.0  0.6522650715861262  0.6332716506215101  0.627341936155916  1.0000
  Sb  Sb7       1.0  0.4427647963921131  0.4698583668626971  0.14488101924898175  1.0000
  Sb  Sb8       1.0  0.4012040814376492  0.42075058612714283  0.8503519071511186  1.0000
  Sb  Sb9       1.0  0.7573548692691842  0.3159759946807266  0.26189785478686595  1.0000
  Sb  Sb10      1.0  0.26167286600093775  0.6247826215663059  0.7580897373411725  1.0000
  O   O1        1.0  0.39589058381270714  0.7133627324996066  0.27570991116596033  1.0000
  O   O2        1.0  0.7326238014532063  0.37670343116605404  0.7303427181010994  1.0000
data_image81
_chemical_formula_structural       Eu10Cd4Sb10O2
_chemical_formula_sum              "Eu10 Cd4 Sb10 O2"
_cell_length_a       11.24426501306804
_cell_length_b       11.24426501306804
_cell_length_c       14.850709
_cell_angle_alpha    90.0
_cell_angle_beta     90.0
_cell_angle_gamma    155.89846091665316

_space_group_name_H-M_alt    "P 1"
_space_group_IT_number       1

loop_
  _space_group_symop_operation_xyz
  'x, y, z'

loop_
  _atom_site_type_symbol
  _atom_site_label
  _atom_site_symmetry_multiplicity
  _atom_site_fract_x
  _atom_site_fract_y
  _atom_site_fract_z
  _atom_site_occupancy
  Eu  Eu1       1.0  0.653823062992067  0.19053195270127118  0.8935285031607691  1.0000
  Eu  Eu2       1.0  0.2913127514881857  0.7358824965658082  0.1468418202708825  1.0000
  Eu  Eu3       1.0  0.625797864216141  0.19322395099667905  0.6278362338280701  1.0000
  Eu  Eu4       1.0  0.31765180091722767  0.7945084452846017  0.4191793206727346  1.0000
  Eu  Eu5       1.0  0.9132902121718554  0.132776228406009  0.2563845452074643  1.0000
  Eu  Eu6       1.0  0.044741558851856364  0.8299932711219711  0.7676112130043945  1.0000
  Eu  Eu7       1.0  0.105377795289535  0.889916828087632  0.2236277934849218  1.0000
  Eu  Eu8       1.0  0.8906819267435866  0.05533708297797702  0.739805646960881  1.0000
  Eu  Eu9       1.0  0.17495742231627742  0.18256786948238007  0.5141014903931932  1.0000
  Eu  Eu10      1.0  0.92510771699324  0.9632607869427152  0.02299284869805178  1.0000
  Cd  Cd1       1.0  0.5864757599355127  0.2905420778098873  0.40748029794300955  1.0000
  Cd  Cd2       1.0  0.5583459042863896  0.7503944788025745  0.4424121880484401  1.0000
  Cd  Cd3       1.0  0.5216773191027962  0.3546830762652964  0.9660477329113822  1.0000
  Cd  Cd4       1.0  0.38938422694098784  0.6261884667197688  0.9609023630309116  1.0000
  Sb  Sb1       1.0  0.9579623931671503  0.26467748945327546  0.5298713835260631  1.0000
  Sb  Sb2       1.0  0.08574772196916321  0.8443914652513085  0.5211488707226284  1.0000
  Sb  Sb3       1.0  0.8600989356003969  0.17157287086974912  0.03516957289412766  1.0000
  Sb  Sb4       1.0  0.1069791880477726  0.79355681169556  0.991816943413704  1.0000
  Sb  Sb5       1.0  0.6085431513651002  0.5515214036965767  0.33036375430426623  1.0000
  Sb  Sb6       1.0  0.6965589359872858  0.6654341339552431  0.6482569513800309  1.0000
  Sb  Sb7       1.0  0.39918588886038225  0.412357164739546  0.13319043275966544  1.0000
  Sb  Sb8       1.0  0.3853126198427051  0.40405685569231603  0.8540268343192856  1.0000
  Sb  Sb9       1.0  0.6702559021013463  0.2660707291386475  0.2600924713786324  1.0000
  Sb  Sb10      1.0  0.2513851387428853  0.6534815594328209  0.7532937293725975  1.0000
  O   O1        1.0  0.3295904500584662  0.6721471923600044  0.2793089500005359  1.0000
  O   O2        1.0  0.658754035457759  0.32633970434416454  0.7839684987865493  1.0000
data_image82
_chemical_formula_structural       Eu10Cd4Sb10O2
_chemical_formula_sum              "Eu10 Cd4 Sb10 O2"
_cell_length_a       11.24426501306804
_cell_length_b       11.24426501306804
_cell_length_c       14.850709
_cell_angle_alpha    90.0
_cell_angle_beta     90.0
_cell_angle_gamma    155.89846091665316

_space_group_name_H-M_alt    "P 1"
_space_group_IT_number       1

loop_
  _space_group_symop_operation_xyz
  'x, y, z'

loop_
  _atom_site_type_symbol
  _atom_site_label
  _atom_site_symmetry_multiplicity
  _atom_site_fract_x
  _atom_site_fract_y
  _atom_site_fract_z
  _atom_site_occupancy
  Eu  Eu1       1.0  0.6970248388604148  0.22996214897720066  0.8760810841280647  1.0000
  Eu  Eu2       1.0  0.2358104605150638  0.7014164387438037  0.13977283818573077  1.0000
  Eu  Eu3       1.0  0.6509087601940702  0.24882863077045766  0.6527892302189491  1.0000
  Eu  Eu4       1.0  0.2930836534022394  0.781803672900124  0.390700670009187  1.0000
  Eu  Eu5       1.0  0.9510674447261431  0.1668477744340289  0.24134457852335012  1.0000
  Eu  Eu6       1.0  0.07097143642825236  0.8157202397835733  0.7856474565784399  1.0000
  Eu  Eu7       1.0  0.08577680402205232  0.8688995134470192  0.24028545232194068  1.0000
  Eu  Eu8       1.0  0.9138806183219749  0.09391792731873246  0.7308380419437499  1.0000
  Eu  Eu9       1.0  0.19710535438295324  0.21268706036871377  0.49068937164958104  1.0000
  Eu  Eu10      1.0  0.9181345781017213  0.9397605475332353  0.008933921269796946  1.0000
  Cd  Cd1       1.0  0.5857764612560585  0.3246465704666487  0.3994237978506271  1.0000
  Cd  Cd2       1.0  0.48519930558981295  0.7000688293738355  0.4349071995425422  1.0000
  Cd  Cd3       1.0  0.5290848197788381  0.3308763039153332  0.9707072891478515  1.0000
  Cd  Cd4       1.0  0.4132838801756372  0.6461354702229164  0.9440819606146116  1.0000
  Sb  Sb1       1.0  0.9105436235650479  0.2498681902189952  0.5427770085795728  1.0000
  Sb  Sb2       1.0  0.07007427232917414  0.7997717542429688  0.5340988262384909  1.0000
  Sb  Sb3       1.0  0.8501738455985236  0.17516252235009483  0.035784410155133346  1.0000
  Sb  Sb4       1.0  0.10885288757253338  0.7644341208919303  0.9988622405950732  1.0000
  Sb  Sb5       1.0  0.6850257897082024  0.6652076082459902  0.3602736064087711  1.0000
  Sb  Sb6       1.0  0.6549064603896358  0.6037016695411259  0.6706262726110356  1.0000
  Sb  Sb7       1.0  0.40328580856290575  0.39250252156928306  0.1571668728197481  1.0000
  Sb  Sb8       1.0  0.3473304049245949  0.35708198098209737  0.8605161631335251  1.0000
  Sb  Sb9       1.0  0.7514317630734726  0.2993259095240413  0.2386158068226952  1.0000
  Sb  Sb10      1.0  0.2018642862128514  0.6380803628778426  0.7538395018432451  1.0000
  O   O1        1.0  0.3449080643761668  0.6388264609630304  0.25798118885607463  1.0000
  O   O2        1.0  0.5925843237687334  0.27550185885936007  0.7958422046376884  1.0000
data_image83
_chemical_formula_structural       Eu10Cd4Sb10O2
_chemical_formula_sum              "Eu10 Cd4 Sb10 O2"
_cell_length_a       11.24426501306804
_cell_length_b       11.24426501306804
_cell_length_c       14.850709
_cell_angle_alpha    90.0
_cell_angle_beta     90.0
_cell_angle_gamma    155.89846091665316

_space_group_name_H-M_alt    "P 1"
_space_group_IT_number       1

loop_
  _space_group_symop_operation_xyz
  'x, y, z'

loop_
  _atom_site_type_symbol
  _atom_site_label
  _atom_site_symmetry_multiplicity
  _atom_site_fract_x
  _atom_site_fract_y
  _atom_site_fract_z
  _atom_site_occupancy
  Eu  Eu1       1.0  0.6606252894829049  0.18793031530237075  0.8911753047619467  1.0000
  Eu  Eu2       1.0  0.34580477691096423  0.8120919210639481  0.126138102918053  1.0000
  Eu  Eu3       1.0  0.6291192692670176  0.1995186282883197  0.6526854669797593  1.0000
  Eu  Eu4       1.0  0.26098745682365093  0.7455730446594512  0.35145276572894874  1.0000
  Eu  Eu5       1.0  0.9842264039855964  0.20914242813440834  0.23321369481977527  1.0000
  Eu  Eu6       1.0  0.08352970459979299  0.8400204053923289  0.7892882676090585  1.0000
  Eu  Eu7       1.0  0.1016267084245863  0.8984832015104214  0.23813923129247466  1.0000
  Eu  Eu8       1.0  0.8434470128207444  0.050163854056097586  0.7406160647513129  1.0000
  Eu  Eu9       1.0  0.12838920256313216  0.12729501429059845  0.5111708422816202  1.0000
  Eu  Eu10      1.0  0.889588739942088  0.8946139686739784  0.006845683489064354  1.0000
  Cd  Cd1       1.0  0.570085755748341  0.325420930223036  0.39497795855597395  1.0000
  Cd  Cd2       1.0  0.4326169363949657  0.644987135488213  0.4106822289853143  1.0000
  Cd  Cd3       1.0  0.575321950487073  0.3781423416928945  0.017247497244458898  1.0000
  Cd  Cd4       1.0  0.4464010803630307  0.6807150739471155  0.9429679854104585  1.0000
  Sb  Sb1       1.0  0.9203930545521347  0.30314867769825127  0.5121723058042205  1.0000
  Sb  Sb2       1.0  0.09043069013184299  0.7900655167131078  0.5330921100811445  1.0000
  Sb  Sb3       1.0  0.9105978684899335  0.1978993621645288  0.03738478176661502  1.0000
  Sb  Sb4       1.0  0.1286095991182693  0.8162995756781845  0.999372722297616  1.0000
  Sb  Sb5       1.0  0.7072270488381508  0.691327950110032  0.34616552089831887  1.0000
  Sb  Sb6       1.0  0.5549738767507243  0.5377337768725391  0.6818630166181989  1.0000
  Sb  Sb7       1.0  0.4558173488074885  0.4357684879615045  0.17211130278526512  1.0000
  Sb  Sb8       1.0  0.37127693585177074  0.34705994931104106  0.8652698727558449  1.0000
  Sb  Sb9       1.0  0.7054924472060858  0.26248751477338783  0.26048365494840225  1.0000
  Sb  Sb10      1.0  0.21098528779445774  0.6260437584933575  0.7513558515525125  1.0000
  O   O1        1.0  0.46384140516107825  0.8074499725541543  0.25313280358431756  1.0000
  O   O2        1.0  0.6866504836961324  0.36017740321871206  0.7843502143556853  1.0000
data_image84
_chemical_formula_structural       Eu10Cd4Sb10O2
_chemical_formula_sum              "Eu10 Cd4 Sb10 O2"
_cell_length_a       11.24426501306804
_cell_length_b       11.24426501306804
_cell_length_c       14.850709
_cell_angle_alpha    90.0
_cell_angle_beta     90.0
_cell_angle_gamma    155.89846091665316

_space_group_name_H-M_alt    "P 1"
_space_group_IT_number       1

loop_
  _space_group_symop_operation_xyz
  'x, y, z'

loop_
  _atom_site_type_symbol
  _atom_site_label
  _atom_site_symmetry_multiplicity
  _atom_site_fract_x
  _atom_site_fract_y
  _atom_site_fract_z
  _atom_site_occupancy
  Eu  Eu1       1.0  0.5863352047041438  0.09581139623084284  0.9166700437095806  1.0000
  Eu  Eu2       1.0  0.39914402103207763  0.8638905156342257  0.11283936082607585  1.0000
  Eu  Eu3       1.0  0.647243927178217  0.19452522032974018  0.658305607279824  1.0000
  Eu  Eu4       1.0  0.3241717534270347  0.793980383190504  0.3608763225546512  1.0000
  Eu  Eu5       1.0  0.8774838478352216  0.11047138459487381  0.22345496442091906  1.0000
  Eu  Eu6       1.0  0.1690677525438963  0.9327690687972812  0.7927972239013071  1.0000
  Eu  Eu7       1.0  0.031488652693149294  0.8499982665133803  0.24623941859698428  1.0000
  Eu  Eu8       1.0  0.8506661170722533  0.044344633744241906  0.7397599574859448  1.0000
  Eu  Eu9       1.0  0.10235161711331234  0.061330896876022646  0.535456433811691  1.0000
  Eu  Eu10      1.0  0.9115637055513948  0.9380861387100144  0.9930308716134673  1.0000
  Cd  Cd1       1.0  0.6071018421904589  0.35646656636318924  0.4031273245534632  1.0000
  Cd  Cd2       1.0  0.345178011030422  0.5383710088599258  0.40638998628570533  1.0000
  Cd  Cd3       1.0  0.6268707625256573  0.4239353139628167  0.05734586669888368  1.0000
  Cd  Cd4       1.0  0.44466392751640776  0.6750133014091186  0.9407860755082745  1.0000
  Sb  Sb1       1.0  0.9554577914014674  0.35153419612441444  0.4728924007758542  1.0000
  Sb  Sb2       1.0  0.14423729259182058  0.8349291230743271  0.5111878285546829  1.0000
  Sb  Sb3       1.0  0.9376097347193836  0.23358251282863263  0.019434735386974815  1.0000
  Sb  Sb4       1.0  0.19258072459119352  0.8768090209555119  0.0029009345565220723  1.0000
  Sb  Sb5       1.0  0.6574929942752944  0.6500375922035868  0.3597275623477267  1.0000
  Sb  Sb6       1.0  0.48550395547859976  0.4898702275636966  0.6779608689466607  1.0000
  Sb  Sb7       1.0  0.37844696223887064  0.3851593795669925  0.16808620465347643  1.0000
  Sb  Sb8       1.0  0.3668662297478747  0.35657423188920545  0.853816834017394  1.0000
  Sb  Sb9       1.0  0.7669213303866844  0.3681380333521959  0.2438406093496595  1.0000
  Sb  Sb10      1.0  0.2271628847255023  0.6143521117828327  0.7645341051568297  1.0000
  O   O1        1.0  0.32958711308951044  0.7012080547121254  0.24387415623290593  1.0000
  O   O2        1.0  0.6804065709102877  0.3287836327390142  0.7845432815475364  1.0000
data_image85
_chemical_formula_structural       Eu10Cd4Sb10O2
_chemical_formula_sum              "Eu10 Cd4 Sb10 O2"
_cell_length_a       11.24426501306804
_cell_length_b       11.24426501306804
_cell_length_c       14.850709
_cell_angle_alpha    90.0
_cell_angle_beta     90.0
_cell_angle_gamma    155.89846091665316

_space_group_name_H-M_alt    "P 1"
_space_group_IT_number       1

loop_
  _space_group_symop_operation_xyz
  'x, y, z'

loop_
  _atom_site_type_symbol
  _atom_site_label
  _atom_site_symmetry_multiplicity
  _atom_site_fract_x
  _atom_site_fract_y
  _atom_site_fract_z
  _atom_site_occupancy
  Eu  Eu1       1.0  0.5975776243268222  0.07819636020253232  0.8643455747193541  1.0000
  Eu  Eu2       1.0  0.35733367495189466  0.8144037109731547  0.12835569915017  1.0000
  Eu  Eu3       1.0  0.6871215758041493  0.20230025156380838  0.6375917175957387  1.0000
  Eu  Eu4       1.0  0.43249725470387856  0.9205881102837432  0.3634314818686606  1.0000
  Eu  Eu5       1.0  0.8509798489979111  0.08341005686443088  0.23866679799477028  1.0000
  Eu  Eu6       1.0  0.18505174518732007  0.9253095395032251  0.7868280606829371  1.0000
  Eu  Eu7       1.0  0.08901160713133094  0.9335827018081715  0.252596299185673  1.0000
  Eu  Eu8       1.0  0.9007992150257065  0.06947993470738319  0.7156745957012991  1.0000
  Eu  Eu9       1.0  0.03223482400204933  0.9814475140342074  0.5711733251041367  1.0000
  Eu  Eu10      1.0  0.8991694250378452  0.9288781270991966  0.012813669761863973  1.0000
  Cd  Cd1       1.0  0.5986127081532248  0.32133219992315587  0.40500992691987764  1.0000
  Cd  Cd2       1.0  0.17742142234768957  0.38085392308360533  0.4315953015550958  1.0000
  Cd  Cd3       1.0  0.5590583163914925  0.3399111249722773  0.07836523313032913  1.0000
  Cd  Cd4       1.0  0.4884605886141509  0.7228551955106001  0.9069111350071626  1.0000
  Sb  Sb1       1.0  0.8898938770096702  0.2909981741773338  0.4865565761684959  1.0000
  Sb  Sb2       1.0  0.15471395364111276  0.8311348795659522  0.5280950990632166  1.0000
  Sb  Sb3       1.0  0.9233453763291143  0.2619355193043296  0.036046298737232564  1.0000
  Sb  Sb4       1.0  0.15211808683425965  0.8562045392006652  0.0012352016940451183  1.0000
  Sb  Sb5       1.0  0.6999681400996831  0.7223491829009462  0.3759391629350281  1.0000
  Sb  Sb6       1.0  0.5739753283425112  0.5874184154939464  0.6778806132774838  1.0000
  Sb  Sb7       1.0  0.33603846539849536  0.37689359402803785  0.164769627506159  1.0000
  Sb  Sb8       1.0  0.41158852793668665  0.4125518902563247  0.871151334114619  1.0000
  Sb  Sb9       1.0  0.7522656704084556  0.3525254577310491  0.2041069703332374  1.0000
  Sb  Sb10      1.0  0.25911797036271056  0.6338719140149776  0.7237766720568672  1.0000
  O   O1        1.0  0.23223474157267104  0.6253310249259934  0.2575049167561703  1.0000
  O   O2        1.0  0.6648501200633649  0.3049358809588142  0.7808341261960476  1.0000
data_image86
_chemical_formula_structural       Eu10Cd4Sb10O2
_chemical_formula_sum              "Eu10 Cd4 Sb10 O2"
_cell_length_a       11.24426501306804
_cell_length_b       11.24426501306804
_cell_length_c       14.850709
_cell_angle_alpha    90.0
_cell_angle_beta     90.0
_cell_angle_gamma    155.89846091665316

_space_group_name_H-M_alt    "P 1"
_space_group_IT_number       1

loop_
  _space_group_symop_operation_xyz
  'x, y, z'

loop_
  _atom_site_type_symbol
  _atom_site_label
  _atom_site_symmetry_multiplicity
  _atom_site_fract_x
  _atom_site_fract_y
  _atom_site_fract_z
  _atom_site_occupancy
  Eu  Eu1       1.0  0.7204809385954775  0.1921830222392096  0.8597450386863998  1.0000
  Eu  Eu2       1.0  0.26746714279295425  0.688030833327416  0.12294290231183838  1.0000
  Eu  Eu3       1.0  0.6244048481086218  0.2224563017095464  0.6695950068629914  1.0000
  Eu  Eu4       1.0  0.2917832825984647  0.8193662059815207  0.3557283658358793  1.0000
  Eu  Eu5       1.0  0.8661772469317107  0.0929348807261591  0.25603191847874485  1.0000
  Eu  Eu6       1.0  0.1406947620317028  0.9006440840404658  0.7664225869703543  1.0000
  Eu  Eu7       1.0  0.13436070472084227  0.989330108676711  0.24555273704794203  1.0000
  Eu  Eu8       1.0  0.9706965838176939  0.12114195261691212  0.7298902630585349  1.0000
  Eu  Eu9       1.0  0.08094005085101312  0.03947429890899821  0.5525751623832358  1.0000
  Eu  Eu10      1.0  0.9364859780853103  0.9350533916095088  0.008273568397819408  1.0000
  Cd  Cd1       1.0  0.6553299097240284  0.3663599324091291  0.41231216470981796  1.0000
  Cd  Cd2       1.0  0.1280335698452972  0.2676266754219891  0.4455226376690506  1.0000
  Cd  Cd3       1.0  0.5494443114766362  0.3671964282403057  0.08132066831841707  1.0000
  Cd  Cd4       1.0  0.4925077151309918  0.7463410198379861  0.9149764893410907  1.0000
  Sb  Sb1       1.0  0.9305504280243242  0.3155414831132427  0.5315557077984082  1.0000
  Sb  Sb2       1.0  0.07516072396642036  0.7681781361392725  0.5363131150879433  1.0000
  Sb  Sb3       1.0  0.8703748693206818  0.20112960844334637  0.018667852445777136  1.0000
  Sb  Sb4       1.0  0.13949308130200022  0.8452352400412992  0.9998913828332723  1.0000
  Sb  Sb5       1.0  0.7161005316886951  0.7371311425394557  0.37331717685741944  1.0000
  Sb  Sb6       1.0  0.5576608828921406  0.5299058687971961  0.6730012724753794  1.0000
  Sb  Sb7       1.0  0.4383255458946561  0.4950993108954893  0.1421439092834138  1.0000
  Sb  Sb8       1.0  0.41145233756111277  0.4034340018064389  0.8735204390020067  1.0000
  Sb  Sb9       1.0  0.7245662986821908  0.3376373810989617  0.23230889211978137  1.0000
  Sb  Sb10      1.0  0.2748804177447998  0.6267449036393967  0.6613593753397793  1.0000
  O   O1        1.0  0.30539799315633426  0.6466366062430289  0.2635949272248258  1.0000
  O   O2        1.0  0.7117694839090719  0.34299903440444307  0.8080674319726908  1.0000
data_image87
_chemical_formula_structural       Eu10Cd4Sb10O2
_chemical_formula_sum              "Eu10 Cd4 Sb10 O2"
_cell_length_a       11.24426501306804
_cell_length_b       11.24426501306804
_cell_length_c       14.850709
_cell_angle_alpha    90.0
_cell_angle_beta     90.0
_cell_angle_gamma    155.89846091665316

_space_group_name_H-M_alt    "P 1"
_space_group_IT_number       1

loop_
  _space_group_symop_operation_xyz
  'x, y, z'

loop_
  _atom_site_type_symbol
  _atom_site_label
  _atom_site_symmetry_multiplicity
  _atom_site_fract_x
  _atom_site_fract_y
  _atom_site_fract_z
  _atom_site_occupancy
  Eu  Eu1       1.0  0.774251745866489  0.2737034103050282  0.8782039306689796  1.0000
  Eu  Eu2       1.0  0.27432359162558356  0.7315843757817413  0.12662835777649675  1.0000
  Eu  Eu3       1.0  0.5985922682183072  0.23432596187004623  0.670264468015866  1.0000
  Eu  Eu4       1.0  0.25091898811348073  0.7498775622137378  0.36755722705315746  1.0000
  Eu  Eu5       1.0  0.8896272161070904  0.12984597319163446  0.26164690720935796  1.0000
  Eu  Eu6       1.0  0.0917468032490411  0.8547910958497467  0.7848039853303485  1.0000
  Eu  Eu7       1.0  0.1422862414646881  0.9707900592246909  0.2248690305410155  1.0000
  Eu  Eu8       1.0  0.9280208217185202  0.06966731052757291  0.7356814615202248  1.0000
  Eu  Eu9       1.0  0.013201184387760575  0.9648895672535821  0.5454993710107124  1.0000
  Eu  Eu10      1.0  0.9276538911916383  0.9370387012057135  0.0009248801238175558  1.0000
  Cd  Cd1       1.0  0.6695805555055485  0.39212366517531055  0.4061535912104317  1.0000
  Cd  Cd2       1.0  0.21715968481858117  0.3875041434709038  0.42816166263625954  1.0000
  Cd  Cd3       1.0  0.6222159635774893  0.44878297450710636  0.08092230218049333  1.0000
  Cd  Cd4       1.0  0.4402361550327509  0.6553095548154267  0.9242311158055759  1.0000
  Sb  Sb1       1.0  0.8657051036287609  0.24114263102955932  0.48986997334981913  1.0000
  Sb  Sb2       1.0  0.10902694580592322  0.8075230990143915  0.5560615341506241  1.0000
  Sb  Sb3       1.0  0.8784666542316433  0.14981034893577438  0.03027678716089032  1.0000
  Sb  Sb4       1.0  0.11967609013252122  0.8118913732700097  0.008954461244319312  1.0000
  Sb  Sb5       1.0  0.7366948023986907  0.7532277978629539  0.3586590204838026  1.0000
  Sb  Sb6       1.0  0.6202194078971589  0.5391355035068345  0.6724004423610288  1.0000
  Sb  Sb7       1.0  0.4392153631477188  0.5453059046475911  0.13681490119340403  1.0000
  Sb  Sb8       1.0  0.43844990340584217  0.41770810205130227  0.8467555768542118  1.0000
  Sb  Sb9       1.0  0.660768150061477  0.2688365143324454  0.23367010828416904  1.0000
  Sb  Sb10      1.0  0.35379477153647276  0.7181805191051978  0.6877549533762691  1.0000
  O   O1        1.0  0.2262910523656245  0.589821333897273  0.24411513661577353  1.0000
  O   O2        1.0  0.6492465160316097  0.3026562314584797  0.810714213895098  1.0000
data_image88
_chemical_formula_structural       Eu10Cd4Sb10O2
_chemical_formula_sum              "Eu10 Cd4 Sb10 O2"
_cell_length_a       11.24426501306804
_cell_length_b       11.24426501306804
_cell_length_c       14.850709
_cell_angle_alpha    90.0
_cell_angle_beta     90.0
_cell_angle_gamma    155.89846091665316

_space_group_name_H-M_alt    "P 1"
_space_group_IT_number       1

loop_
  _space_group_symop_operation_xyz
  'x, y, z'

loop_
  _atom_site_type_symbol
  _atom_site_label
  _atom_site_symmetry_multiplicity
  _atom_site_fract_x
  _atom_site_fract_y
  _atom_site_fract_z
  _atom_site_occupancy
  Eu  Eu1       1.0  0.6860620623112762  0.20425111902925194  0.9370197341697357  1.0000
  Eu  Eu2       1.0  0.3017929470533168  0.7786943692617528  0.12957860560808487  1.0000
  Eu  Eu3       1.0  0.6468558895885844  0.23625853650976625  0.6503737388116995  1.0000
  Eu  Eu4       1.0  0.2695189996675494  0.7518427848908316  0.3927096898885625  1.0000
  Eu  Eu5       1.0  0.8773739161224248  0.16351952550992757  0.24887605816662275  1.0000
  Eu  Eu6       1.0  0.026852471038688878  0.7499656326377296  0.7969483004575278  1.0000
  Eu  Eu7       1.0  0.18966569124440966  0.9967625632391195  0.21509766158495483  1.0000
  Eu  Eu8       1.0  0.8338554443242308  0.9686407831362259  0.7451101864673942  1.0000
  Eu  Eu9       1.0  0.064203589255068  0.02857014431529389  0.5362751721119307  1.0000
  Eu  Eu10      1.0  0.003172849205569128  0.9991700284558492  0.9949917115963245  1.0000
  Cd  Cd1       1.0  0.7220533851161918  0.44145780407711044  0.40836324423502385  1.0000
  Cd  Cd2       1.0  0.28577030602812387  0.4664539884920083  0.43751892898376704  1.0000
  Cd  Cd3       1.0  0.627397758796654  0.44030262221596883  0.06100056885339399  1.0000
  Cd  Cd4       1.0  0.4523626898594147  0.6944960917441533  0.9142901348939011  1.0000
  Sb  Sb1       1.0  0.8173851278428584  0.17098953849597917  0.5145902757254038  1.0000
  Sb  Sb2       1.0  0.12864675592137279  0.8185467291679778  0.5208450056030645  1.0000
  Sb  Sb3       1.0  0.9332782601379161  0.2027389320574428  0.020399538849461666  1.0000
  Sb  Sb4       1.0  0.1858327684262121  0.8769185562017895  0.004188719868239321  1.0000
  Sb  Sb5       1.0  0.644001945728294  0.670442894047517  0.31379156624276927  1.0000
  Sb  Sb6       1.0  0.5597250441133613  0.4478343180143381  0.6631824433715011  1.0000
  Sb  Sb7       1.0  0.3774546384505894  0.5096601393081591  0.12179535210466316  1.0000
  Sb  Sb8       1.0  0.4288215661065323  0.4399050952090985  0.8474768632950244  1.0000
  Sb  Sb9       1.0  0.7136894279067234  0.33990160659983115  0.2370500592524319  1.0000
  Sb  Sb10      1.0  0.2825044461037868  0.6715045678901729  0.7343407381155865  1.0000
  O   O1        1.0  0.3796391226095221  0.732044661179788  0.2417088265118471  1.0000
  O   O2        1.0  0.609518898969305  0.22191331486421867  0.7807549489986092  1.0000
data_image89
_chemical_formula_structural       Eu10Cd4Sb10O2
_chemical_formula_sum              "Eu10 Cd4 Sb10 O2"
_cell_length_a       11.24426501306804
_cell_length_b       11.24426501306804
_cell_length_c       14.850709
_cell_angle_alpha    90.0
_cell_angle_beta     90.0
_cell_angle_gamma    155.89846091665316

_space_group_name_H-M_alt    "P 1"
_space_group_IT_number       1

loop_
  _space_group_symop_operation_xyz
  'x, y, z'

loop_
  _atom_site_type_symbol
  _atom_site_label
  _atom_site_symmetry_multiplicity
  _atom_site_fract_x
  _atom_site_fract_y
  _atom_site_fract_z
  _atom_site_occupancy
  Eu  Eu1       1.0  0.6244553192251628  0.14766086745508517  0.9423467158376787  1.0000
  Eu  Eu2       1.0  0.3010233353730613  0.7441880613066438  0.15238466646931942  1.0000
  Eu  Eu3       1.0  0.686641033649755  0.2434928524976114  0.6315521678374555  1.0000
  Eu  Eu4       1.0  0.3004093243272411  0.7789747895283671  0.3950873222093333  1.0000
  Eu  Eu5       1.0  0.853944194651091  0.1473681576222248  0.248877912848932  1.0000
  Eu  Eu6       1.0  0.06932523900498894  0.7590338932219562  0.7936464204008374  1.0000
  Eu  Eu7       1.0  0.19023185499977613  0.018120585037801007  0.22715531739542177  1.0000
  Eu  Eu8       1.0  0.8242607016130523  0.9879510904645711  0.7618631958479258  1.0000
  Eu  Eu9       1.0  0.004837244770994653  0.9881754482444127  0.5205000245471899  1.0000
  Eu  Eu10      1.0  0.03721539453386904  0.021787061420080845  0.006467949084089732  1.0000
  Cd  Cd1       1.0  0.6005300137255773  0.33722310609421075  0.4061530738911332  1.0000
  Cd  Cd2       1.0  0.40939153601691824  0.6001704183365858  0.44586110688075115  1.0000
  Cd  Cd3       1.0  0.5371695158149585  0.3739533798061401  0.06086993044837924  1.0000
  Cd  Cd4       1.0  0.4381728542111623  0.7234140183964493  0.8944940902558207  1.0000
  Sb  Sb1       1.0  0.8109324592575506  0.1170746203344027  0.509899453219731  1.0000
  Sb  Sb2       1.0  0.2201209831875669  0.9118724074757599  0.5247595354922392  1.0000
  Sb  Sb3       1.0  0.9972871395167072  0.2973557150129072  0.012588023036246263  1.0000
  Sb  Sb4       1.0  0.1248067774389917  0.8419391637962711  0.9964238793967176  1.0000
  Sb  Sb5       1.0  0.6348117012650007  0.6587375844021096  0.29206986392207057  1.0000
  Sb  Sb6       1.0  0.5564214661870382  0.4614840725628088  0.6579834720128555  1.0000
  Sb  Sb7       1.0  0.38138094650093246  0.48227296573971906  0.13706071442955617  1.0000
  Sb  Sb8       1.0  0.4167537253950365  0.38635775158951047  0.8339113147373524  1.0000
  Sb  Sb9       1.0  0.7510641941990871  0.37456177601573204  0.24357658224567763  1.0000
  Sb  Sb10      1.0  0.2909674464536823  0.6870673293453525  0.7368980259010346  1.0000
  O   O1        1.0  0.31703092093889346  0.651209783823688  0.2659416996472582  1.0000
  O   O2        1.0  0.6083368835284875  0.21609832078625651  0.788984867457475  1.0000
data_image90
_chemical_formula_structural       Eu10Cd4Sb10O2
_chemical_formula_sum              "Eu10 Cd4 Sb10 O2"
_cell_length_a       11.24426501306804
_cell_length_b       11.24426501306804
_cell_length_c       14.850709
_cell_angle_alpha    90.0
_cell_angle_beta     90.0
_cell_angle_gamma    155.89846091665316

_space_group_name_H-M_alt    "P 1"
_space_group_IT_number       1

loop_
  _space_group_symop_operation_xyz
  'x, y, z'

loop_
  _atom_site_type_symbol
  _atom_site_label
  _atom_site_symmetry_multiplicity
  _atom_site_fract_x
  _atom_site_fract_y
  _atom_site_fract_z
  _atom_site_occupancy
  Eu  Eu1       1.0  0.6928973610436929  0.2582642684681093  0.9229279606820362  1.0000
  Eu  Eu2       1.0  0.25741553136741185  0.7479200460289642  0.13889933893403697  1.0000
  Eu  Eu3       1.0  0.8029058364866758  0.3472238580806468  0.6603193865533495  1.0000
  Eu  Eu4       1.0  0.2515775822836376  0.7308797933055386  0.39716189023592685  1.0000
  Eu  Eu5       1.0  0.8841948118872409  0.14374125424775364  0.27442286439240343  1.0000
  Eu  Eu6       1.0  0.17255369412203786  0.8447420370759847  0.779663099242101  1.0000
  Eu  Eu7       1.0  0.16701150284690203  0.9589036377619823  0.2529753290300743  1.0000
  Eu  Eu8       1.0  0.8722575194693376  0.06974265751373092  0.7582590429476084  1.0000
  Eu  Eu9       1.0  0.9707351438387462  0.9708879599420265  0.49401604101520397  1.0000
  Eu  Eu10      1.0  0.8858162054769317  0.912887929222248  0.0021244059266050386  1.0000
  Cd  Cd1       1.0  0.6536676325705469  0.4032077372254706  0.41477655692511617  1.0000
  Cd  Cd2       1.0  0.43644568960362723  0.5915223317075106  0.42486539692494174  1.0000
  Cd  Cd3       1.0  0.5112470033187957  0.3513375737227576  0.0754455348382042  1.0000
  Cd  Cd4       1.0  0.4673387265415516  0.7056802649177373  0.9147719088952847  1.0000
  Sb  Sb1       1.0  0.9389132502992427  0.19861782111526174  0.5119938380211705  1.0000
  Sb  Sb2       1.0  0.18835067417352042  0.9248271017588745  0.5420949430635716  1.0000
  Sb  Sb3       1.0  0.9854411779067886  0.3092105916721207  0.012730012870799928  1.0000
  Sb  Sb4       1.0  0.045063057644105446  0.7549303385812579  0.01916825445676551  1.0000
  Sb  Sb5       1.0  0.6553925348846321  0.6454490154916802  0.2920574348634791  1.0000
  Sb  Sb6       1.0  0.5203914006457393  0.4544055211258833  0.6690365689321924  1.0000
  Sb  Sb7       1.0  0.40343916468658125  0.4815054983456697  0.10874116666198527  1.0000
  Sb  Sb8       1.0  0.3214992747351151  0.29379598378124316  0.833656928920766  1.0000
  Sb  Sb9       1.0  0.6767022210579544  0.2809758086496396  0.23897186961544306  1.0000
  Sb  Sb10      1.0  0.29100946432130864  0.6658667152028465  0.6894978194408783  1.0000
  O   O1        1.0  0.31449189554152013  0.6515024283206621  0.28835990867593936  1.0000
  O   O2        1.0  0.6398526395474732  0.3055777790979244  0.7974839783199621  1.0000
data_image91
_chemical_formula_structural       Eu10Cd4Sb10O2
_chemical_formula_sum              "Eu10 Cd4 Sb10 O2"
_cell_length_a       11.24426501306804
_cell_length_b       11.24426501306804
_cell_length_c       14.850709
_cell_angle_alpha    90.0
_cell_angle_beta     90.0
_cell_angle_gamma    155.89846091665316

_space_group_name_H-M_alt    "P 1"
_space_group_IT_number       1

loop_
  _space_group_symop_operation_xyz
  'x, y, z'

loop_
  _atom_site_type_symbol
  _atom_site_label
  _atom_site_symmetry_multiplicity
  _atom_site_fract_x
  _atom_site_fract_y
  _atom_site_fract_z
  _atom_site_occupancy
  Eu  Eu1       1.0  0.6590061802009611  0.22977380783511583  0.9346228433704129  1.0000
  Eu  Eu2       1.0  0.30747826840023956  0.7791870906706129  0.14283731383895149  1.0000
  Eu  Eu3       1.0  0.733667896841301  0.29319341818893724  0.637329974657807  1.0000
  Eu  Eu4       1.0  0.22894825527545978  0.7270981979274608  0.3982874589407854  1.0000
  Eu  Eu5       1.0  0.8762195020969654  0.15250181202028362  0.28892934237992335  1.0000
  Eu  Eu6       1.0  0.12475977131084502  0.8274863964961408  0.7630882350724597  1.0000
  Eu  Eu7       1.0  0.13627192123951787  0.90569552414686  0.25600167027053883  1.0000
  Eu  Eu8       1.0  0.8732889416466789  0.09138282524751473  0.7483549951202577  1.0000
  Eu  Eu9       1.0  0.025638206590062627  0.0025733541321175534  0.4797747327797598  1.0000
  Eu  Eu10      1.0  0.9160038506894939  0.9220103931510049  0.9992746801712743  1.0000
  Cd  Cd1       1.0  0.6416896948434136  0.4284259131126535  0.40628534916489056  1.0000
  Cd  Cd2       1.0  0.426949738548065  0.5828758234271086  0.43344853541498585  1.0000
  Cd  Cd3       1.0  0.4673304043488248  0.28714934677544257  0.07327458702718008  1.0000
  Cd  Cd4       1.0  0.45647483667948147  0.7299530267942042  0.9230695785179933  1.0000
  Sb  Sb1       1.0  0.8880952644199137  0.1836734307691638  0.5320541405161074  1.0000
  Sb  Sb2       1.0  0.25753094759265077  0.9646489196022122  0.5395474771194593  1.0000
  Sb  Sb3       1.0  0.962431952212795  0.2697986621258443  0.03489898166956465  1.0000
  Sb  Sb4       1.0  0.08157772573423365  0.7916103266177689  0.02433526279655962  1.0000
  Sb  Sb5       1.0  0.6333825840613421  0.6245375270501186  0.2844324073726047  1.0000
  Sb  Sb6       1.0  0.5667005305148527  0.46987217762969036  0.6483239077897527  1.0000
  Sb  Sb7       1.0  0.35573299004901726  0.4514040792939733  0.11675738620190493  1.0000
  Sb  Sb8       1.0  0.3393001487214328  0.29317322718312705  0.8480117966717209  1.0000
  Sb  Sb9       1.0  0.7645208384529012  0.36235780460850764  0.2671052524428023  1.0000
  Sb  Sb10      1.0  0.3351722442584111  0.6786545210282098  0.6618862373728268  1.0000
  O   O1        1.0  0.33071943858623604  0.7131418944308413  0.2899709960717151  1.0000
  O   O2        1.0  0.6836073091750987  0.32402701611380136  0.7576517703137041  1.0000
data_image92
_chemical_formula_structural       Eu10Cd4Sb10O2
_chemical_formula_sum              "Eu10 Cd4 Sb10 O2"
_cell_length_a       11.24426501306804
_cell_length_b       11.24426501306804
_cell_length_c       14.850709
_cell_angle_alpha    90.0
_cell_angle_beta     90.0
_cell_angle_gamma    155.89846091665316

_space_group_name_H-M_alt    "P 1"
_space_group_IT_number       1

loop_
  _space_group_symop_operation_xyz
  'x, y, z'

loop_
  _atom_site_type_symbol
  _atom_site_label
  _atom_site_symmetry_multiplicity
  _atom_site_fract_x
  _atom_site_fract_y
  _atom_site_fract_z
  _atom_site_occupancy
  Eu  Eu1       1.0  0.5946842213819494  0.19289900063450985  0.9415854285751007  1.0000
  Eu  Eu2       1.0  0.39278589230045924  0.8442606943569675  0.15548285717650506  1.0000
  Eu  Eu3       1.0  0.72621716774988  0.25898152836912885  0.6246108194518805  1.0000
  Eu  Eu4       1.0  0.2616250307616787  0.7414162957965734  0.40799360732129125  1.0000
  Eu  Eu5       1.0  0.9513718627274671  0.2211435849070816  0.2662181156336988  1.0000
  Eu  Eu6       1.0  0.1453841038317033  0.8659049765918122  0.7988550016013561  1.0000
  Eu  Eu7       1.0  0.12804872940827397  0.919167249302222  0.24042498277365337  1.0000
  Eu  Eu8       1.0  0.8491877198194677  0.04088364742865836  0.7443660519157541  1.0000
  Eu  Eu9       1.0  0.059917006524421036  0.026509347988064976  0.47551516630227364  1.0000
  Eu  Eu10      1.0  0.8616538549615083  0.8399822628766962  0.9535863565279805  1.0000
  Cd  Cd1       1.0  0.6802544233259761  0.4633678031917694  0.4156808642059278  1.0000
  Cd  Cd2       1.0  0.4121213100362013  0.5796950898610497  0.43574251878076  1.0000
  Cd  Cd3       1.0  0.542144297232961  0.3873108087663496  0.07698369454682202  1.0000
  Cd  Cd4       1.0  0.39032671630076665  0.700341025611799  0.9355813594925609  1.0000
  Sb  Sb1       1.0  0.8981994552432219  0.1520711436400684  0.5236810707740078  1.0000
  Sb  Sb2       1.0  0.24960415043452908  0.9754262055897346  0.5365732566263085  1.0000
  Sb  Sb3       1.0  0.9252103607215776  0.22276357629417823  0.043005865569573504  1.0000
  Sb  Sb4       1.0  0.04136450736744627  0.7438128047742345  0.023640609731440998  1.0000
  Sb  Sb5       1.0  0.5462092711575453  0.5777613954403774  0.285134020560738  1.0000
  Sb  Sb6       1.0  0.5718606163543165  0.4691465352720085  0.660418970361434  1.0000
  Sb  Sb7       1.0  0.3555356009613159  0.47211732450131966  0.09304126497784532  1.0000
  Sb  Sb8       1.0  0.39436069242054306  0.3420985389004252  0.85631775840737  1.0000
  Sb  Sb9       1.0  0.750838678938991  0.36016952606377406  0.2810022500539739  1.0000
  Sb  Sb10      1.0  0.299115668886156  0.6517998758890073  0.6738559692317783  1.0000
  O   O1        1.0  0.3379754795765128  0.692020578717427  0.29756786291395954  1.0000
  O   O2        1.0  0.7416637908114955  0.3488730655526056  0.7933685285727142  1.0000
data_image93
_chemical_formula_structural       Eu10Cd4Sb10O2
_chemical_formula_sum              "Eu10 Cd4 Sb10 O2"
_cell_length_a       11.24426501306804
_cell_length_b       11.24426501306804
_cell_length_c       14.850709
_cell_angle_alpha    90.0
_cell_angle_beta     90.0
_cell_angle_gamma    155.89846091665316

_space_group_name_H-M_alt    "P 1"
_space_group_IT_number       1

loop_
  _space_group_symop_operation_xyz
  'x, y, z'

loop_
  _atom_site_type_symbol
  _atom_site_label
  _atom_site_symmetry_multiplicity
  _atom_site_fract_x
  _atom_site_fract_y
  _atom_site_fract_z
  _atom_site_occupancy
  Eu  Eu1       1.0  0.6590415269226256  0.2139876870037313  0.945494864510122  1.0000
  Eu  Eu2       1.0  0.39861873568617917  0.8720973790971167  0.1537755230008557  1.0000
  Eu  Eu3       1.0  0.7674942602791954  0.2986711505005015  0.6257527950222829  1.0000
  Eu  Eu4       1.0  0.23983383948330747  0.7159006289852805  0.3980156686296441  1.0000
  Eu  Eu5       1.0  0.011465735208743055  0.23366175019067373  0.2536618752396504  1.0000
  Eu  Eu6       1.0  0.07547891977051831  0.8081347549838501  0.8088015795386533  1.0000
  Eu  Eu7       1.0  0.13878120378532335  0.9352802458956547  0.24007336226616227  1.0000
  Eu  Eu8       1.0  0.9020631910806668  0.060118065036035125  0.7469104074686754  1.0000
  Eu  Eu9       1.0  0.998897240969152  0.9735792426346905  0.49835207689907896  1.0000
  Eu  Eu10      1.0  0.8928056553832523  0.8994777831165683  0.9516418780661748  1.0000
  Cd  Cd1       1.0  0.6214084622995572  0.381588056053446  0.4276704609768444  1.0000
  Cd  Cd2       1.0  0.4375966546972021  0.6524490853911918  0.4152823201742401  1.0000
  Cd  Cd3       1.0  0.5024908277197311  0.370257324301302  0.09957794995798036  1.0000
  Cd  Cd4       1.0  0.3253816042551927  0.6503437338192977  0.8928921462519477  1.0000
  Sb  Sb1       1.0  0.9614438943943  0.21234737300897233  0.5184921816728655  1.0000
  Sb  Sb2       1.0  0.18222250985744204  0.89064527995393  0.5609709039057892  1.0000
  Sb  Sb3       1.0  0.8738380159727601  0.1770728386887931  0.03698778970419462  1.0000
  Sb  Sb4       1.0  0.0871872566994272  0.8097112353920443  0.0372722255662421  1.0000
  Sb  Sb5       1.0  0.6174924009066041  0.621461868950633  0.2696537438394784  1.0000
  Sb  Sb6       1.0  0.5769802790207671  0.47711684516173136  0.6687577504351605  1.0000
  Sb  Sb7       1.0  0.3787744109607801  0.5028484478678235  0.09571986304839561  1.0000
  Sb  Sb8       1.0  0.35841632016511343  0.330814146649952  0.8271118945197914  1.0000
  Sb  Sb9       1.0  0.7342180849844487  0.32380814764920735  0.2639855290501454  1.0000
  Sb  Sb10      1.0  0.24039387692397612  0.6094242618845067  0.7083447968158124  1.0000
  O   O1        1.0  0.4155332992648195  0.7634979452340362  0.27993448203286014  1.0000
  O   O2        1.0  0.733908763774868  0.3492707796950265  0.807592637945617  1.0000
data_image94
_chemical_formula_structural       Eu10Cd4Sb10O2
_chemical_formula_sum              "Eu10 Cd4 Sb10 O2"
_cell_length_a       11.24426501306804
_cell_length_b       11.24426501306804
_cell_length_c       14.850709
_cell_angle_alpha    90.0
_cell_angle_beta     90.0
_cell_angle_gamma    155.89846091665316

_space_group_name_H-M_alt    "P 1"
_space_group_IT_number       1

loop_
  _space_group_symop_operation_xyz
  'x, y, z'

loop_
  _atom_site_type_symbol
  _atom_site_label
  _atom_site_symmetry_multiplicity
  _atom_site_fract_x
  _atom_site_fract_y
  _atom_site_fract_z
  _atom_site_occupancy
  Eu  Eu1       1.0  0.6969120477785884  0.23862749770980457  0.955122466114728  1.0000
  Eu  Eu2       1.0  0.3144228996714157  0.7410060533878505  0.14225485967602147  1.0000
  Eu  Eu3       1.0  0.7159570852740444  0.2525146980836696  0.6439473959066612  1.0000
  Eu  Eu4       1.0  0.17754235573960062  0.6923581411745062  0.3848233987232125  1.0000
  Eu  Eu5       1.0  0.10480347397933021  0.3104054984274901  0.26872908051555194  1.0000
  Eu  Eu6       1.0  0.9538755472186708  0.6898591871610665  0.8104840773325863  1.0000
  Eu  Eu7       1.0  0.1777544765396399  0.9762658726114347  0.23194298659703713  1.0000
  Eu  Eu8       1.0  0.8417506495050565  0.9999872525254905  0.7534799904945317  1.0000
  Eu  Eu9       1.0  0.04121384460663032  0.002014580909432329  0.5170809133036768  1.0000
  Eu  Eu10      1.0  0.9049381891337713  0.9555622733631929  0.9815755074220046  1.0000
  Cd  Cd1       1.0  0.5205360496738605  0.2889484638464105  0.40596556117819793  1.0000
  Cd  Cd2       1.0  0.5309579534713508  0.7279379712980424  0.41025957922247563  1.0000
  Cd  Cd3       1.0  0.48076251335352793  0.34943690998428784  0.07081776522198445  1.0000
  Cd  Cd4       1.0  0.29030909825270734  0.6145334182696741  0.8888303983318434  1.0000
  Sb  Sb1       1.0  0.0985756563486142  0.35701243769115304  0.5302877176658914  1.0000
  Sb  Sb2       1.0  0.13601796196795474  0.819923370779555  0.5745698184082667  1.0000
  Sb  Sb3       1.0  0.8662217344321738  0.17142693675165915  0.03857284545420805  1.0000
  Sb  Sb4       1.0  0.06600133515831075  0.8048615857415937  0.011374674350380642  1.0000
  Sb  Sb5       1.0  0.618943984194699  0.6142202896034972  0.28933964708902915  1.0000
  Sb  Sb6       1.0  0.6167201086555925  0.5094093729403841  0.6295135888043762  1.0000
  Sb  Sb7       1.0  0.41135599368388365  0.5385110541455762  0.08600733697858348  1.0000
  Sb  Sb8       1.0  0.40703954975638323  0.37934543176451496  0.8274659442988516  1.0000
  Sb  Sb9       1.0  0.7310077278889987  0.33944604291178  0.2674920432879715  1.0000
  Sb  Sb10      1.0  0.33436629881427743  0.7030298737201293  0.7017630865044604  1.0000
  O   O1        1.0  0.3814008442138376  0.735911758307905  0.28559989015746134  1.0000
  O   O2        1.0  0.608408490570724  0.2117126413703071  0.8098011101061509  1.0000
data_image95
_chemical_formula_structural       Eu10Cd4Sb10O2
_chemical_formula_sum              "Eu10 Cd4 Sb10 O2"
_cell_length_a       11.24426501306804
_cell_length_b       11.24426501306804
_cell_length_c       14.850709
_cell_angle_alpha    90.0
_cell_angle_beta     90.0
_cell_angle_gamma    155.89846091665316

_space_group_name_H-M_alt    "P 1"
_space_group_IT_number       1

loop_
  _space_group_symop_operation_xyz
  'x, y, z'

loop_
  _atom_site_type_symbol
  _atom_site_label
  _atom_site_symmetry_multiplicity
  _atom_site_fract_x
  _atom_site_fract_y
  _atom_site_fract_z
  _atom_site_occupancy
  Eu  Eu1       1.0  0.6393273943237024  0.22060271251145036  0.9458584425484382  1.0000
  Eu  Eu2       1.0  0.26042862856553567  0.7021249277237506  0.1568983918903924  1.0000
  Eu  Eu3       1.0  0.654333443116983  0.21426655241135742  0.6640117331880555  1.0000
  Eu  Eu4       1.0  0.18128289114020693  0.6999541325140803  0.37847053186158747  1.0000
  Eu  Eu5       1.0  0.06631874123049974  0.24162441127313394  0.2767544446180874  1.0000
  Eu  Eu6       1.0  0.9584459403512646  0.6811407098404508  0.8062106019214169  1.0000
  Eu  Eu7       1.0  0.1702742967969776  0.986691337479776  0.2373271258379276  1.0000
  Eu  Eu8       1.0  0.8940442704017347  0.04480575192777986  0.7455032607042295  1.0000
  Eu  Eu9       1.0  0.07569250131646439  0.03521302736872454  0.48448465758830395  1.0000
  Eu  Eu10      1.0  0.94574317513987  0.9854645861186019  0.971711211058382  1.0000
  Cd  Cd1       1.0  0.5109350732347352  0.2732411945786015  0.4252097898941596  1.0000
  Cd  Cd2       1.0  0.6252865686262877  0.8278602238967867  0.41789764046942346  1.0000
  Cd  Cd3       1.0  0.5114471550309679  0.3946962824956424  0.034674278987131386  1.0000
  Cd  Cd4       1.0  0.2840775755380725  0.5956496103552612  0.877642105590245  1.0000
  Sb  Sb1       1.0  0.07700363276517752  0.32896262741902277  0.5080068395269158  1.0000
  Sb  Sb2       1.0  0.07080328729893172  0.7915902030902358  0.5801834169722073  1.0000
  Sb  Sb3       1.0  0.9206054640700349  0.22989580143938884  0.020298236661165953  1.0000
  Sb  Sb4       1.0  0.06807682813663378  0.804717815739113  0.033850407682397554  1.0000
  Sb  Sb5       1.0  0.6404982902974766  0.5997434021537476  0.3355229446249437  1.0000
  Sb  Sb6       1.0  0.5570164728499989  0.432980863208181  0.6526835993171732  1.0000
  Sb  Sb7       1.0  0.39266111338576337  0.5060150378137912  0.11036652521029813  1.0000
  Sb  Sb8       1.0  0.4681618506421315  0.4396731564932995  0.8350127135906085  1.0000
  Sb  Sb9       1.0  0.7455180905769303  0.38212473914581696  0.2321762057545991  1.0000
  Sb  Sb10      1.0  0.37097952567216275  0.6991092045644588  0.6924923810224727  1.0000
  O   O1        1.0  0.23390003184158245  0.584366129550761  0.29937932534839234  1.0000
  O   O2        1.0  0.595565533265712  0.20434543485232223  0.8064590106846625  1.0000
data_image96
_chemical_formula_structural       Eu10Cd4Sb10O2
_chemical_formula_sum              "Eu10 Cd4 Sb10 O2"
_cell_length_a       11.24426501306804
_cell_length_b       11.24426501306804
_cell_length_c       14.850709
_cell_angle_alpha    90.0
_cell_angle_beta     90.0
_cell_angle_gamma    155.89846091665316

_space_group_name_H-M_alt    "P 1"
_space_group_IT_number       1

loop_
  _space_group_symop_operation_xyz
  'x, y, z'

loop_
  _atom_site_type_symbol
  _atom_site_label
  _atom_site_symmetry_multiplicity
  _atom_site_fract_x
  _atom_site_fract_y
  _atom_site_fract_z
  _atom_site_occupancy
  Eu  Eu1       1.0  0.5679166009056507  0.1664959986243813  0.9411241749845128  1.0000
  Eu  Eu2       1.0  0.277880809964678  0.723382224701236  0.16830397484497972  1.0000
  Eu  Eu3       1.0  0.5971638566529387  0.1379991127819402  0.6575678280510009  1.0000
  Eu  Eu4       1.0  0.2032630248557819  0.7014694284827439  0.3868889063189836  1.0000
  Eu  Eu5       1.0  0.013183994839961688  0.19051122185902497  0.2755472524287385  1.0000
  Eu  Eu6       1.0  0.10339442059155775  0.8278191541038312  0.8081366073955134  1.0000
  Eu  Eu7       1.0  0.12689154155728358  0.9699622363484095  0.23463553289361974  1.0000
  Eu  Eu8       1.0  0.0008049591854173421  0.13775373991135276  0.7302930699581351  1.0000
  Eu  Eu9       1.0  0.06314044252703856  0.03890090234716043  0.4732207105097262  1.0000
  Eu  Eu10      1.0  0.9248190176535666  0.004244922221286098  0.981055370112324  1.0000
  Cd  Cd1       1.0  0.6010262177862561  0.29367138197041237  0.46323479343819507  1.0000
  Cd  Cd2       1.0  0.5665903775623047  0.7448337420920531  0.4192577606825083  1.0000
  Cd  Cd3       1.0  0.5249368228223199  0.37640241175976225  0.01740653838255393  1.0000
  Cd  Cd4       1.0  0.3471433118446403  0.6634564444682873  0.8879198435205657  1.0000
  Sb  Sb1       1.0  0.07575524063242733  0.3317232987382181  0.5131285356423538  1.0000
  Sb  Sb2       1.0  0.03571688051256351  0.7561544704471372  0.6029053013065534  1.0000
  Sb  Sb3       1.0  0.8034130979053103  0.1549686486743961  0.9928597363784066  1.0000
  Sb  Sb4       1.0  0.05156506232204121  0.7975291840659101  0.04069698100728325  1.0000
  Sb  Sb5       1.0  0.5773683084116804  0.5266658104768187  0.339790348074415  1.0000
  Sb  Sb6       1.0  0.555280044714755  0.47159549777837817  0.6376932998914849  1.0000
  Sb  Sb7       1.0  0.3916925335724864  0.4841156429063941  0.1088995741184895  1.0000
  Sb  Sb8       1.0  0.5083509066409125  0.4881318508322195  0.8343607403636728  1.0000
  Sb  Sb9       1.0  0.721841299072748  0.3351790667335055  0.23327577123480747  1.0000
  Sb  Sb10      1.0  0.40920267661292103  0.7344695926081383  0.6840271237342129  1.0000
  O   O1        1.0  0.46804584212606487  0.7584740904192028  0.2818453772077717  1.0000
  O   O2        1.0  0.6966468220346491  0.3449030999087508  0.7971936946874287  1.0000
data_image97
_chemical_formula_structural       Eu10Cd4Sb10O2
_chemical_formula_sum              "Eu10 Cd4 Sb10 O2"
_cell_length_a       11.24426501306804
_cell_length_b       11.24426501306804
_cell_length_c       14.850709
_cell_angle_alpha    90.0
_cell_angle_beta     90.0
_cell_angle_gamma    155.89846091665316

_space_group_name_H-M_alt    "P 1"
_space_group_IT_number       1

loop_
  _space_group_symop_operation_xyz
  'x, y, z'

loop_
  _atom_site_type_symbol
  _atom_site_label
  _atom_site_symmetry_multiplicity
  _atom_site_fract_x
  _atom_site_fract_y
  _atom_site_fract_z
  _atom_site_occupancy
  Eu  Eu1       1.0  0.585846022714801  0.20226651119646147  0.9187353895774426  1.0000
  Eu  Eu2       1.0  0.29562810381173604  0.7284126213576083  0.14677553770708276  1.0000
  Eu  Eu3       1.0  0.6200769506683687  0.1460952379231167  0.6510130011844785  1.0000
  Eu  Eu4       1.0  0.3198016104614677  0.7957436590631422  0.40518528643579443  1.0000
  Eu  Eu5       1.0  0.9477850053879525  0.10409989717303163  0.2621869433569355  1.0000
  Eu  Eu6       1.0  0.14935887145394006  0.8874404341074987  0.7966620471394676  1.0000
  Eu  Eu7       1.0  0.042369083835105265  0.8922655942150002  0.23509164437434085  1.0000
  Eu  Eu8       1.0  0.02828459947368156  0.15856399810653418  0.7192669103954906  1.0000
  Eu  Eu9       1.0  0.037053535993759275  0.9893334683922506  0.48288159735253683  1.0000
  Eu  Eu10      1.0  0.9517932755050075  0.03573280107348049  0.005614654948985717  1.0000
  Cd  Cd1       1.0  0.6183485084770088  0.33098806921419205  0.4754900491807753  1.0000
  Cd  Cd2       1.0  0.4423670664938186  0.604478949455115  0.4206395078426975  1.0000
  Cd  Cd3       1.0  0.4913631281737359  0.3766958359673009  0.00546192754981683  1.0000
  Cd  Cd4       1.0  0.2605004264712928  0.5931262742610646  0.8876150681998072  1.0000
  Sb  Sb1       1.0  0.009976567697567607  0.28058214464378967  0.5431574492436063  1.0000
  Sb  Sb2       1.0  0.03584096455261234  0.7531589244552669  0.589441063841336  1.0000
  Sb  Sb3       1.0  0.7874936528961431  0.14804246072643182  0.9825370173143055  1.0000
  Sb  Sb4       1.0  0.03342741720233874  0.7927571050476485  0.04889266322685515  1.0000
  Sb  Sb5       1.0  0.5666454655039252  0.4869892677117876  0.35921895948785626  1.0000
  Sb  Sb6       1.0  0.5916065292491365  0.570328428892854  0.6452527970658012  1.0000
  Sb  Sb7       1.0  0.4592317606949589  0.5209512284955594  0.1324478303575008  1.0000
  Sb  Sb8       1.0  0.6408176147600831  0.6123229062662376  0.8172787679516942  1.0000
  Sb  Sb9       1.0  0.7049062184322838  0.3304365571093723  0.22745284313147449  1.0000
  Sb  Sb10      1.0  0.3776975480826896  0.6899329222912934  0.685452903637455  1.0000
  O   O1        1.0  0.5153647772522117  0.8619936983328362  0.2747215753830322  1.0000
  O   O2        1.0  0.7046153118982332  0.264121128578234  0.7868579783928733  1.0000
data_image98
_chemical_formula_structural       Eu10Cd4Sb10O2
_chemical_formula_sum              "Eu10 Cd4 Sb10 O2"
_cell_length_a       11.24426501306804
_cell_length_b       11.24426501306804
_cell_length_c       14.850709
_cell_angle_alpha    90.0
_cell_angle_beta     90.0
_cell_angle_gamma    155.89846091665316

_space_group_name_H-M_alt    "P 1"
_space_group_IT_number       1

loop_
  _space_group_symop_operation_xyz
  'x, y, z'

loop_
  _atom_site_type_symbol
  _atom_site_label
  _atom_site_symmetry_multiplicity
  _atom_site_fract_x
  _atom_site_fract_y
  _atom_site_fract_z
  _atom_site_occupancy
  Eu  Eu1       1.0  0.5410995738001723  0.1870299308601432  0.9370557213482197  1.0000
  Eu  Eu2       1.0  0.25243642881558315  0.6733608160626248  0.15075353791038526  1.0000
  Eu  Eu3       1.0  0.7741009988540556  0.2874305920577656  0.6223160649317354  1.0000
  Eu  Eu4       1.0  0.4007848023863632  0.8747280161070916  0.3713123035406246  1.0000
  Eu  Eu5       1.0  0.8362766994609402  0.021202433599682748  0.24986315351166136  1.0000
  Eu  Eu6       1.0  0.07732939256193318  0.8178699705080257  0.7734536728219182  1.0000
  Eu  Eu7       1.0  0.047466876922137295  0.8609400077484693  0.24848404715611452  1.0000
  Eu  Eu8       1.0  0.9662047156685364  0.10416534506914756  0.7197216228836761  1.0000
  Eu  Eu9       1.0  0.09018949477994909  0.05692436472255661  0.5053537288388179  1.0000
  Eu  Eu10      1.0  0.9397371329550134  0.005146946479306644  0.008934251258462873  1.0000
  Cd  Cd1       1.0  0.6198424220736003  0.3195937622325551  0.43372896967377683  1.0000
  Cd  Cd2       1.0  0.3959506522765767  0.560977358305547  0.42535446221238216  1.0000
  Cd  Cd3       1.0  0.47434710816993325  0.3719426243547709  0.006358426859125337  1.0000
  Cd  Cd4       1.0  0.2696538465698087  0.5905339159509992  0.8924924304358757  1.0000
  Sb  Sb1       1.0  0.031337625246947054  0.32179805774082604  0.5352799084472093  1.0000
  Sb  Sb2       1.0  0.08177700231476849  0.7572070400340817  0.5812370141857363  1.0000
  Sb  Sb3       1.0  0.7695094572193241  0.12025596445318977  0.005388711736248201  1.0000
  Sb  Sb4       1.0  0.054288054389055394  0.8221953152467215  0.0425752469426266  1.0000
  Sb  Sb5       1.0  0.5242710093401707  0.4564042269685818  0.36948421437772605  1.0000
  Sb  Sb6       1.0  0.5431570351586718  0.5176898389021455  0.6534922994827636  1.0000
  Sb  Sb7       1.0  0.46785428002333074  0.5345972476512697  0.15986378168562093  1.0000
  Sb  Sb8       1.0  0.7402311260837884  0.6947508924270357  0.8424403717323238  1.0000
  Sb  Sb9       1.0  0.7531669308903807  0.39287466897759565  0.21806113292551377  1.0000
  Sb  Sb10      1.0  0.37432638735591967  0.6917509078153895  0.6963762268038685  1.0000
  O   O1        1.0  0.46938768501150463  0.8093927695018387  0.2682998886199907  1.0000
  O   O2        1.0  0.6177527860902899  0.300861685611695  0.8051781179211847  1.0000
data_image99
_chemical_formula_structural       Eu10Cd4Sb10O2
_chemical_formula_sum              "Eu10 Cd4 Sb10 O2"
_cell_length_a       11.24426501306804
_cell_length_b       11.24426501306804
_cell_length_c       14.850709
_cell_angle_alpha    90.0
_cell_angle_beta     90.0
_cell_angle_gamma    155.89846091665316

_space_group_name_H-M_alt    "P 1"
_space_group_IT_number       1

loop_
  _space_group_symop_operation_xyz
  'x, y, z'

loop_
  _atom_site_type_symbol
  _atom_site_label
  _atom_site_symmetry_multiplicity
  _atom_site_fract_x
  _atom_site_fract_y
  _atom_site_fract_z
  _atom_site_occupancy
  Eu  Eu1       1.0  0.5765848866188542  0.20913294023668627  0.9205855696371253  1.0000
  Eu  Eu2       1.0  0.2649759644007507  0.6953829596567875  0.12791804752555305  1.0000
  Eu  Eu3       1.0  0.7331497765744498  0.242748530237472  0.6706022227840491  1.0000
  Eu  Eu4       1.0  0.34028696640718825  0.8348780580275091  0.3795689959144989  1.0000
  Eu  Eu5       1.0  0.9296471664722457  0.1394571838619411  0.2573455970985181  1.0000
  Eu  Eu6       1.0  0.03958530490900135  0.7850811475710539  0.7326501116659808  1.0000
  Eu  Eu7       1.0  0.1391153037350967  0.9540720967147599  0.24993946688597102  1.0000
  Eu  Eu8       1.0  0.954537242716693  0.09348924339365755  0.7494835807856429  1.0000
  Eu  Eu9       1.0  0.07700365950909335  0.046003624468342795  0.5008985297795191  1.0000
  Eu  Eu10      1.0  0.9440771100417232  0.01915987415483669  0.026916983142888512  1.0000
  Cd  Cd1       1.0  0.6832232655061394  0.3823675102368723  0.39460364004938253  1.0000
  Cd  Cd2       1.0  0.4922845124519388  0.6659553569865438  0.43058002744721396  1.0000
  Cd  Cd3       1.0  0.44662290394139664  0.35739436591486257  0.02241467031237368  1.0000
  Cd  Cd4       1.0  0.360127902403125  0.6455031166835167  0.9112694435852815  1.0000
  Sb  Sb1       1.0  0.9852531846147824  0.2764686628464805  0.5148312074700906  1.0000
  Sb  Sb2       1.0  0.20909159423033793  0.8649809978464795  0.5408625815206817  1.0000
  Sb  Sb3       1.0  0.7743728353320692  0.12201600010605425  0.006794592300996055  1.0000
  Sb  Sb4       1.0  0.9754091699204687  0.741708545355206  0.02547285261694321  1.0000
  Sb  Sb5       1.0  0.5042561214563488  0.46027353421987405  0.35110330100949755  1.0000
  Sb  Sb6       1.0  0.48030629162925165  0.4575671197514068  0.6838653193393898  1.0000
  Sb  Sb7       1.0  0.4183929248348298  0.4657843973440484  0.1788823835151005  1.0000
  Sb  Sb8       1.0  0.6539909791273743  0.6254613085056594  0.8443859050417659  1.0000
  Sb  Sb9       1.0  0.7044947073440021  0.2795646584706648  0.21521933265369228  1.0000
  Sb  Sb10      1.0  0.35922524612849954  0.6925704944410037  0.709930351995622  1.0000
  O   O1        1.0  0.35520805389644106  0.6620405616932612  0.2655737210655446  1.0000
  O   O2        1.0  0.5665934082437255  0.19394220207567955  0.7910756430783478  1.0000
data_image100
_chemical_formula_structural       Eu10Cd4Sb10O2
_chemical_formula_sum              "Eu10 Cd4 Sb10 O2"
_cell_length_a       11.24426501306804
_cell_length_b       11.24426501306804
_cell_length_c       14.850709
_cell_angle_alpha    90.0
_cell_angle_beta     90.0
_cell_angle_gamma    155.89846091665316

_space_group_name_H-M_alt    "P 1"
_space_group_IT_number       1

loop_
  _space_group_symop_operation_xyz
  'x, y, z'

loop_
  _atom_site_type_symbol
  _atom_site_label
  _atom_site_symmetry_multiplicity
  _atom_site_fract_x
  _atom_site_fract_y
  _atom_site_fract_z
  _atom_site_occupancy
  Eu  Eu1       1.0  0.5708430240376409  0.20277680295484987  0.9084178739675596  1.0000
  Eu  Eu2       1.0  0.3041228371750952  0.7280717065174473  0.13476117101324697  1.0000
  Eu  Eu3       1.0  0.6281245983801185  0.1479820770877285  0.6618175593276117  1.0000
  Eu  Eu4       1.0  0.2817959719511623  0.7539919237430566  0.3874930095723643  1.0000
  Eu  Eu5       1.0  0.881118079495694  0.1444594879873695  0.25910035340456683  1.0000
  Eu  Eu6       1.0  0.0029287658576668957  0.7501561801569959  0.7223174581932129  1.0000
  Eu  Eu7       1.0  0.12505982206103475  0.9190936271814578  0.2301905213007052  1.0000
  Eu  Eu8       1.0  0.010841537566861348  0.14150168990083153  0.7518358159636718  1.0000
  Eu  Eu9       1.0  0.9600791187051713  0.9193759228300247  0.5035693659750295  1.0000
  Eu  Eu10      1.0  0.8704231345293962  0.9745402707779435  0.04422265101230065  1.0000
  Cd  Cd1       1.0  0.8397547013065058  0.5711121633931013  0.3900779479884539  1.0000
  Cd  Cd2       1.0  0.5478167015056731  0.7495562885199997  0.4195876019118834  1.0000
  Cd  Cd3       1.0  0.4460113045564265  0.31245192660789095  0.07489288560091034  1.0000
  Cd  Cd4       1.0  0.41940364337704333  0.6395408830499262  0.8947553189659305  1.0000
  Sb  Sb1       1.0  0.9983903744937562  0.29598706737635283  0.5235116132403008  1.0000
  Sb  Sb2       1.0  0.23458917847222072  0.8911874334433  0.5225891826675387  1.0000
  Sb  Sb3       1.0  0.8823313393229462  0.24421189173521793  0.9819613879560175  1.0000
  Sb  Sb4       1.0  0.008388933974620854  0.7442522491674581  0.05152635636116076  1.0000
  Sb  Sb5       1.0  0.5423448702234561  0.5085435266134525  0.3576322488394984  1.0000
  Sb  Sb6       1.0  0.4745712126288197  0.42745343824428383  0.6416291441618398  1.0000
  Sb  Sb7       1.0  0.4929105553324751  0.5741520253975712  0.16923173482813708  1.0000
  Sb  Sb8       1.0  0.6681372172031796  0.6476978593828773  0.8740026857708961  1.0000
  Sb  Sb9       1.0  0.7132069728739848  0.27919278226059074  0.23592432434781016  1.0000
  Sb  Sb10      1.0  0.23537297268120272  0.5706330846571741  0.7145110188974282  1.0000
  O   O1        1.0  0.31702529519773304  0.6393429242992873  0.26231441658435517  1.0000
  O   O2        1.0  0.7434778477813723  0.376796531338475  0.7591944098846078  1.0000
data_image101
_chemical_formula_structural       Eu10Cd4Sb10O2
_chemical_formula_sum              "Eu10 Cd4 Sb10 O2"
_cell_length_a       11.24426501306804
_cell_length_b       11.24426501306804
_cell_length_c       14.850709
_cell_angle_alpha    90.0
_cell_angle_beta     90.0
_cell_angle_gamma    155.89846091665316

_space_group_name_H-M_alt    "P 1"
_space_group_IT_number       1

loop_
  _space_group_symop_operation_xyz
  'x, y, z'

loop_
  _atom_site_type_symbol
  _atom_site_label
  _atom_site_symmetry_multiplicity
  _atom_site_fract_x
  _atom_site_fract_y
  _atom_site_fract_z
  _atom_site_occupancy
  Eu  Eu1       1.0  0.5691723863191761  0.23508778005279268  0.9220998936454544  1.0000
  Eu  Eu2       1.0  0.3697029968297002  0.8035145546313872  0.10277705991152623  1.0000
  Eu  Eu3       1.0  0.5677021380839496  0.0949386109339782  0.6478317283452647  1.0000
  Eu  Eu4       1.0  0.22822248627978758  0.6643795946159222  0.40427376241302754  1.0000
  Eu  Eu5       1.0  0.9128306201885126  0.2354646620559896  0.2540165645488053  1.0000
  Eu  Eu6       1.0  0.9624208626994071  0.7163132832483033  0.7186715786465386  1.0000
  Eu  Eu7       1.0  0.14306642536162434  0.941429995176658  0.263082473960499  1.0000
  Eu  Eu8       1.0  0.9694948362378354  0.09970574507969172  0.7192072028840809  1.0000
  Eu  Eu9       1.0  0.9587941527483584  0.8954947400878487  0.49835403699150715  1.0000
  Eu  Eu10      1.0  0.9104586184601443  0.035568607796190685  0.046993816811637314  1.0000
  Cd  Cd1       1.0  0.7205019978841837  0.42523842063375333  0.41117866006782977  1.0000
  Cd  Cd2       1.0  0.5372104438939804  0.7265771722170908  0.43062140992326037  1.0000
  Cd  Cd3       1.0  0.48038455483445996  0.32742396884212166  0.06059328548067303  1.0000
  Cd  Cd4       1.0  0.4467181176657908  0.6652803258441641  0.8762289277134357  1.0000
  Sb  Sb1       1.0  0.04642389922867962  0.3258507807685133  0.542676392918901  1.0000
  Sb  Sb2       1.0  0.2899145518681973  0.956393614686002  0.49753623232711414  1.0000
  Sb  Sb3       1.0  0.8261875811310958  0.21077589849690334  0.9562924297752674  1.0000
  Sb  Sb4       1.0  0.012716503071203627  0.7085340953874726  0.054827174281580904  1.0000
  Sb  Sb5       1.0  0.5281046801703883  0.4868742792259543  0.3530036103107772  1.0000
  Sb  Sb6       1.0  0.463465851603395  0.3857971163103051  0.6274692409962263  1.0000
  Sb  Sb7       1.0  0.42721671438469816  0.5186155180459907  0.20279822088815494  1.0000
  Sb  Sb8       1.0  0.7436086456908494  0.6723242702098375  0.9021007313936794  1.0000
  Sb  Sb9       1.0  0.7137315581608297  0.31401962030792674  0.25296242689605597  1.0000
  Sb  Sb10      1.0  0.3037279474835235  0.6569881578606078  0.7156794259694896  1.0000
  O   O1        1.0  0.4011667976333296  0.7748384346280935  0.2543225078321902  1.0000
  O   O2        1.0  0.7338148570682477  0.3406296711166013  0.7623746903711784  1.0000
data_image102
_chemical_formula_structural       Eu10Cd4Sb10O2
_chemical_formula_sum              "Eu10 Cd4 Sb10 O2"
_cell_length_a       11.24426501306804
_cell_length_b       11.24426501306804
_cell_length_c       14.850709
_cell_angle_alpha    90.0
_cell_angle_beta     90.0
_cell_angle_gamma    155.89846091665316

_space_group_name_H-M_alt    "P 1"
_space_group_IT_number       1

loop_
  _space_group_symop_operation_xyz
  'x, y, z'

loop_
  _atom_site_type_symbol
  _atom_site_label
  _atom_site_symmetry_multiplicity
  _atom_site_fract_x
  _atom_site_fract_y
  _atom_site_fract_z
  _atom_site_occupancy
  Eu  Eu1       1.0  0.5350507933728826  0.22217812785180563  0.9149814616268578  1.0000
  Eu  Eu2       1.0  0.4061066914392447  0.8484599942971741  0.09424971533063255  1.0000
  Eu  Eu3       1.0  0.6912683659304848  0.19652407751894793  0.6721194316752506  1.0000
  Eu  Eu4       1.0  0.2643180078682297  0.6995546628229833  0.39841383942384573  1.0000
  Eu  Eu5       1.0  0.9605987351363735  0.25035847853544907  0.23892472248602858  1.0000
  Eu  Eu6       1.0  0.9223588368602269  0.7067924312894563  0.7241574739241539  1.0000
  Eu  Eu7       1.0  0.15185503354601015  0.9508941732037779  0.2801951583029336  1.0000
  Eu  Eu8       1.0  0.9171072220889472  0.020151032129575683  0.7055974446354031  1.0000
  Eu  Eu9       1.0  0.011111660769361539  0.9485064130311067  0.49148015200796186  1.0000
  Eu  Eu10      1.0  0.8706900132874217  0.0025904320167817662  0.05058594706405008  1.0000
  Cd  Cd1       1.0  0.6733509714510036  0.38657199946754695  0.43964265439677314  1.0000
  Cd  Cd2       1.0  0.5479143606461448  0.7269422570365556  0.4464961334942918  1.0000
  Cd  Cd3       1.0  0.4830991643095019  0.35961332245886374  0.08306171327237331  1.0000
  Cd  Cd4       1.0  0.4295641442213795  0.6421510288612001  0.8744871336395817  1.0000
  Sb  Sb1       1.0  0.026879972262177088  0.2886487590780741  0.5442159476457054  1.0000
  Sb  Sb2       1.0  0.2286829014964843  0.8831622551765382  0.5030204843114225  1.0000
  Sb  Sb3       1.0  0.8231396775552581  0.2143599326284518  0.9446408240299988  1.0000
  Sb  Sb4       1.0  0.05528771780270906  0.7416705780123631  0.07052677920981076  1.0000
  Sb  Sb5       1.0  0.5336338517089156  0.5003723048097494  0.34002706909793334  1.0000
  Sb  Sb6       1.0  0.43634213373190794  0.3835425231712013  0.6211702834088872  1.0000
  Sb  Sb7       1.0  0.36009546070033954  0.45873611746249193  0.1861157903931355  1.0000
  Sb  Sb8       1.0  0.7615796424846143  0.7244099263255783  0.9118779511142032  1.0000
  Sb  Sb9       1.0  0.7619748021606458  0.3373668661060892  0.22373900224063856  1.0000
  Sb  Sb10      1.0  0.2693581694909383  0.5957838053999185  0.7081076289631484  1.0000
  O   O1        1.0  0.34469549032370717  0.7359369135180698  0.2412024373596696  1.0000
  O   O2        1.0  0.5388095109104926  0.2017762345840489  0.7724588816262047  1.0000
data_image103
_chemical_formula_structural       Eu10Cd4Sb10O2
_chemical_formula_sum              "Eu10 Cd4 Sb10 O2"
_cell_length_a       11.24426501306804
_cell_length_b       11.24426501306804
_cell_length_c       14.850709
_cell_angle_alpha    90.0
_cell_angle_beta     90.0
_cell_angle_gamma    155.89846091665316

_space_group_name_H-M_alt    "P 1"
_space_group_IT_number       1

loop_
  _space_group_symop_operation_xyz
  'x, y, z'

loop_
  _atom_site_type_symbol
  _atom_site_label
  _atom_site_symmetry_multiplicity
  _atom_site_fract_x
  _atom_site_fract_y
  _atom_site_fract_z
  _atom_site_occupancy
  Eu  Eu1       1.0  0.5544069065325357  0.23409933456587803  0.9169249331700763  1.0000
  Eu  Eu2       1.0  0.3735771500131888  0.804118777987751  0.1180479871268327  1.0000
  Eu  Eu3       1.0  0.7015959302487363  0.23477846811135827  0.6702236703178234  1.0000
  Eu  Eu4       1.0  0.22626228770076384  0.6619017816476418  0.3827079576794324  1.0000
  Eu  Eu5       1.0  0.9270758253016782  0.20440392013068934  0.2517584891019792  1.0000
  Eu  Eu6       1.0  0.9339596281774161  0.7336353838076122  0.7065266175116703  1.0000
  Eu  Eu7       1.0  0.17119284528412643  0.9317573014204543  0.26781601610389466  1.0000
  Eu  Eu8       1.0  0.8544121352487022  0.9586345704551792  0.7231977155432499  1.0000
  Eu  Eu9       1.0  0.04558395805652282  0.9738950493959448  0.47907948047500626  1.0000
  Eu  Eu10      1.0  0.873944308426575  0.9890598979420117  0.06041335906508862  1.0000
  Cd  Cd1       1.0  0.6228215971988911  0.3573948192073284  0.42278832747764183  1.0000
  Cd  Cd2       1.0  0.5220169235954564  0.7175027437310917  0.46891460383187716  1.0000
  Cd  Cd3       1.0  0.5400379982838255  0.4043226475273947  0.08996522924846923  1.0000
  Cd  Cd4       1.0  0.3721746433576491  0.5746393498407795  0.900207564135851  1.0000
  Sb  Sb1       1.0  0.9168895691841197  0.22041447665526215  0.559505637607332  1.0000
  Sb  Sb2       1.0  0.194500225401322  0.8166562463007565  0.5425081041990979  1.0000
  Sb  Sb3       1.0  0.87796718929746  0.26092424868546693  0.9413355292574141  1.0000
  Sb  Sb4       1.0  0.11177975443417817  0.8085326809752456  0.07387482660797162  1.0000
  Sb  Sb5       1.0  0.4912368230958295  0.45479440401378823  0.3353253096350354  1.0000
  Sb  Sb6       1.0  0.4978519677841464  0.4808579308555665  0.6096322159773823  1.0000
  Sb  Sb7       1.0  0.4180378380060923  0.49849230699200264  0.17237294825781152  1.0000
  Sb  Sb8       1.0  0.807467904391308  0.7657993323547224  0.8688663326167493  1.0000
  Sb  Sb9       1.0  0.7267025377862918  0.33885305560234313  0.20275896327797932  1.0000
  Sb  Sb10      1.0  0.3646180510944303  0.6815286724738231  0.7054354853228434  1.0000
  O   O1        1.0  0.385358438171512  0.745668756035312  0.2636889315483756  1.0000
  O   O2        1.0  0.54997926163549  0.24480223991912967  0.7498455337459493  1.0000
data_image104
_chemical_formula_structural       Eu10Cd4Sb10O2
_chemical_formula_sum              "Eu10 Cd4 Sb10 O2"
_cell_length_a       11.24426501306804
_cell_length_b       11.24426501306804
_cell_length_c       14.850709
_cell_angle_alpha    90.0
_cell_angle_beta     90.0
_cell_angle_gamma    155.89846091665316

_space_group_name_H-M_alt    "P 1"
_space_group_IT_number       1

loop_
  _space_group_symop_operation_xyz
  'x, y, z'

loop_
  _atom_site_type_symbol
  _atom_site_label
  _atom_site_symmetry_multiplicity
  _atom_site_fract_x
  _atom_site_fract_y
  _atom_site_fract_z
  _atom_site_occupancy
  Eu  Eu1       1.0  0.6170451849590286  0.3212261904645853  0.9198088454210336  1.0000
  Eu  Eu2       1.0  0.34685003808257314  0.7367728662146231  0.13130117843198272  1.0000
  Eu  Eu3       1.0  0.7134050841229851  0.2794368892029325  0.6748048904261499  1.0000
  Eu  Eu4       1.0  0.136912835665384  0.6108725002472863  0.39360115904869775  1.0000
  Eu  Eu5       1.0  0.8746175248016846  0.1283553184464029  0.27226175523521184  1.0000
  Eu  Eu6       1.0  0.9737584347110467  0.7637815290605732  0.7139816328504731  1.0000
  Eu  Eu7       1.0  0.149139160470118  0.9112497822170045  0.27517766698819485  1.0000
  Eu  Eu8       1.0  0.950479966745368  0.07694783118382299  0.7183315550000363  1.0000
  Eu  Eu9       1.0  0.04682176873730409  0.9686302599560118  0.4841425655351082  1.0000
  Eu  Eu10      1.0  0.9685978469781512  0.06613083122237402  0.03079561767446322  1.0000
  Cd  Cd1       1.0  0.6271053874982544  0.309720925234469  0.41562502876450125  1.0000
  Cd  Cd2       1.0  0.46365574335288456  0.6644348392230469  0.465184197140733  1.0000
  Cd  Cd3       1.0  0.5512554602202887  0.4350782898508613  0.07163540255871598  1.0000
  Cd  Cd4       1.0  0.38995505806331565  0.5826737089443655  0.9139557868104105  1.0000
  Sb  Sb1       1.0  0.9502858939040892  0.28039159908706973  0.561447429420616  1.0000
  Sb  Sb2       1.0  0.08511173679894292  0.7443607772864148  0.5118048206903529  1.0000
  Sb  Sb3       1.0  0.8529717829293321  0.21642310086841626  0.9133970801067077  1.0000
  Sb  Sb4       1.0  0.057961320034721646  0.7656447589799795  0.055478978174997584  1.0000
  Sb  Sb5       1.0  0.5050673232911673  0.47739252238396856  0.3580112329180324  1.0000
  Sb  Sb6       1.0  0.46003913978810396  0.4322650813745442  0.6090090177808766  1.0000
  Sb  Sb7       1.0  0.4709183373874838  0.5563479507449686  0.1919756179872074  1.0000
  Sb  Sb8       1.0  0.7888486650730305  0.7289608599243766  0.8752552137866197  1.0000
  Sb  Sb9       1.0  0.7034460497809708  0.27379715366231766  0.2047269627295832  1.0000
  Sb  Sb10      1.0  0.4174292186951909  0.7434866302175211  0.6930898192342351  1.0000
  O   O1        1.0  0.39864860113179534  0.748807900261077  0.3109083187240504  1.0000
  O   O2        1.0  0.49619670636224794  0.20759440158389683  0.7409376618355802  1.0000
data_image105
_chemical_formula_structural       Eu10Cd4Sb10O2
_chemical_formula_sum              "Eu10 Cd4 Sb10 O2"
_cell_length_a       11.24426501306804
_cell_length_b       11.24426501306804
_cell_length_c       14.850709
_cell_angle_alpha    90.0
_cell_angle_beta     90.0
_cell_angle_gamma    155.89846091665316

_space_group_name_H-M_alt    "P 1"
_space_group_IT_number       1

loop_
  _space_group_symop_operation_xyz
  'x, y, z'

loop_
  _atom_site_type_symbol
  _atom_site_label
  _atom_site_symmetry_multiplicity
  _atom_site_fract_x
  _atom_site_fract_y
  _atom_site_fract_z
  _atom_site_occupancy
  Eu  Eu1       1.0  0.6318367338572107  0.2910805601724263  0.9128539765062458  1.0000
  Eu  Eu2       1.0  0.34664328359318514  0.7142462269447314  0.1348242216407649  1.0000
  Eu  Eu3       1.0  0.7277361642403178  0.2925801317545502  0.6547306872698967  1.0000
  Eu  Eu4       1.0  0.13227513113734632  0.585342539709982  0.39216563251763553  1.0000
  Eu  Eu5       1.0  0.7959260233703863  0.027541842489444752  0.29217617445266647  1.0000
  Eu  Eu6       1.0  0.9162558749161018  0.7324641938935152  0.7242407306553927  1.0000
  Eu  Eu7       1.0  0.03212626754153775  0.8211434842227363  0.2560524246339093  1.0000
  Eu  Eu8       1.0  0.08776913841247413  0.19431590999360668  0.7107075631754692  1.0000
  Eu  Eu9       1.0  0.03785115305022225  0.961716616130251  0.48760993803291136  1.0000
  Eu  Eu10      1.0  0.028586382781970184  0.11272399631099594  0.029665009779692404  1.0000
  Cd  Cd1       1.0  0.5930236618973319  0.28208899254865366  0.388173952082625  1.0000
  Cd  Cd2       1.0  0.5047260564423585  0.6920076548953362  0.4768383934917239  1.0000
  Cd  Cd3       1.0  0.48844837808377445  0.37044858699581823  0.056741313310190535  1.0000
  Cd  Cd4       1.0  0.41881687159840375  0.6686135922711248  0.9301104452483522  1.0000
  Sb  Sb1       1.0  0.9654143378986113  0.28842787950448057  0.541070124092885  1.0000
  Sb  Sb2       1.0  0.024387307210206467  0.69251903430719  0.5295615728688543  1.0000
  Sb  Sb3       1.0  0.8556343268833391  0.22586829309174908  0.8977070142226012  1.0000
  Sb  Sb4       1.0  0.10219044640332865  0.841237194019321  0.07224709800715567  1.0000
  Sb  Sb5       1.0  0.5000308481643052  0.46049530003787875  0.35368823540654254  1.0000
  Sb  Sb6       1.0  0.5856717799250685  0.5771271755130484  0.6220927620827931  1.0000
  Sb  Sb7       1.0  0.4470351161584561  0.5088374726239682  0.18788384916020837  1.0000
  Sb  Sb8       1.0  0.7143392054612048  0.7013882858419028  0.8866072328648259  1.0000
  Sb  Sb9       1.0  0.7338486197805478  0.2807934572023044  0.22236150112440278  1.0000
  Sb  Sb10      1.0  0.4468170376404495  0.800361201936056  0.6995394811664564  1.0000
  O   O1        1.0  0.26496874675197635  0.5517393129950251  0.27957241953168893  1.0000
  O   O2        1.0  0.5678124554906747  0.28029270564821207  0.7618857212187149  1.0000
data_image106
_chemical_formula_structural       Eu10Cd4Sb10O2
_chemical_formula_sum              "Eu10 Cd4 Sb10 O2"
_cell_length_a       11.24426501306804
_cell_length_b       11.24426501306804
_cell_length_c       14.850709
_cell_angle_alpha    90.0
_cell_angle_beta     90.0
_cell_angle_gamma    155.89846091665316

_space_group_name_H-M_alt    "P 1"
_space_group_IT_number       1

loop_
  _space_group_symop_operation_xyz
  'x, y, z'

loop_
  _atom_site_type_symbol
  _atom_site_label
  _atom_site_symmetry_multiplicity
  _atom_site_fract_x
  _atom_site_fract_y
  _atom_site_fract_z
  _atom_site_occupancy
  Eu  Eu1       1.0  0.5545690436206939  0.19455513816986575  0.9065181499146413  1.0000
  Eu  Eu2       1.0  0.3512262663962946  0.7532983319836288  0.12713557751213578  1.0000
  Eu  Eu3       1.0  0.7193493224759039  0.2645187034565114  0.670335145001691  1.0000
  Eu  Eu4       1.0  0.2401368157538768  0.6623766569024457  0.39586808657048395  1.0000
  Eu  Eu5       1.0  0.8001381262353073  0.0134698446238308  0.30569203103096493  1.0000
  Eu  Eu6       1.0  0.986469924471422  0.7965081085506006  0.7402183756177955  1.0000
  Eu  Eu7       1.0  0.9958404218729555  0.8480909467567312  0.2538647242185973  1.0000
  Eu  Eu8       1.0  0.06543445786081903  0.19183106920636678  0.7465616953315021  1.0000
  Eu  Eu9       1.0  0.014883297539380754  0.9271332606195606  0.4682979495589329  1.0000
  Eu  Eu10      1.0  0.09046554939159254  0.2075617832084735  0.9971824027641985  1.0000
  Cd  Cd1       1.0  0.5731852540664426  0.2544596901524413  0.3814497392853945  1.0000
  Cd  Cd2       1.0  0.615281277410426  0.786451903262568  0.4889255520299799  1.0000
  Cd  Cd3       1.0  0.5290646488698961  0.36157211535702316  0.03777280331486524  1.0000
  Cd  Cd4       1.0  0.4213481413482844  0.703650070304348  0.9348877959761854  1.0000
  Sb  Sb1       1.0  0.9446029585891036  0.2601748639987392  0.5721460613764204  1.0000
  Sb  Sb2       1.0  0.054209215251987554  0.7019556568202108  0.5080359568094946  1.0000
  Sb  Sb3       1.0  0.8415078324570954  0.2299652146941491  0.8871573412260592  1.0000
  Sb  Sb4       1.0  0.052093471310977774  0.7787530429803753  0.0684008475464355  1.0000
  Sb  Sb5       1.0  0.44412343355212414  0.4095119856781201  0.3504567673744415  1.0000
  Sb  Sb6       1.0  0.5782631655317496  0.5765814218187616  0.6113584592212782  1.0000
  Sb  Sb7       1.0  0.4727703194532614  0.5272944477670832  0.16099128858470865  1.0000
  Sb  Sb8       1.0  0.5934087534837679  0.5962798691334018  0.9034048849255129  1.0000
  Sb  Sb9       1.0  0.7387477543265544  0.28696393113237006  0.22550595304605225  1.0000
  Sb  Sb10      1.0  0.43571493835365993  0.7755607140878658  0.7112058106908385  1.0000
  O   O1        1.0  0.23303329926507507  0.48323179186646564  0.29384795502390676  1.0000
  O   O2        1.0  0.5696205321781791  0.27673972431343696  0.7572447396993367  1.0000
data_image107
_chemical_formula_structural       Eu10Cd4Sb10O2
_chemical_formula_sum              "Eu10 Cd4 Sb10 O2"
_cell_length_a       11.24426501306804
_cell_length_b       11.24426501306804
_cell_length_c       14.850709
_cell_angle_alpha    90.0
_cell_angle_beta     90.0
_cell_angle_gamma    155.89846091665316

_space_group_name_H-M_alt    "P 1"
_space_group_IT_number       1

loop_
  _space_group_symop_operation_xyz
  'x, y, z'

loop_
  _atom_site_type_symbol
  _atom_site_label
  _atom_site_symmetry_multiplicity
  _atom_site_fract_x
  _atom_site_fract_y
  _atom_site_fract_z
  _atom_site_occupancy
  Eu  Eu1       1.0  0.5054557928308869  0.16632959726116175  0.8970642173381654  1.0000
  Eu  Eu2       1.0  0.3522453237740873  0.7835598511134872  0.13254991932113278  1.0000
  Eu  Eu3       1.0  0.6882025124379052  0.22135510147465676  0.6945390508981888  1.0000
  Eu  Eu4       1.0  0.22493942428878558  0.629575251871494  0.40236835020972594  1.0000
  Eu  Eu5       1.0  0.8092103905137101  0.015109080915819023  0.3007550244500661  1.0000
  Eu  Eu6       1.0  0.0465275167934513  0.8384183160154003  0.7169523308335913  1.0000
  Eu  Eu7       1.0  0.04511319222233322  0.9290934919808842  0.2120563938743737  1.0000
  Eu  Eu8       1.0  0.012763647259073974  0.1506357701485474  0.7882590653720152  1.0000
  Eu  Eu9       1.0  0.020908400553282427  0.9373686471615057  0.4860001429112213  1.0000
  Eu  Eu10      1.0  0.9346306253307018  0.09505446527265701  0.9969034900169946  1.0000
  Cd  Cd1       1.0  0.5530147147533998  0.21163457934682384  0.3840688078669138  1.0000
  Cd  Cd2       1.0  0.6462735519748194  0.8305992668217239  0.5082812466900545  1.0000
  Cd  Cd3       1.0  0.5329677777477649  0.3861680728407937  0.07400828667860786  1.0000
  Cd  Cd4       1.0  0.43372743724838325  0.7406542760014562  0.9288009441120466  1.0000
  Sb  Sb1       1.0  0.04854925291808487  0.34805935524331266  0.562818850575394  1.0000
  Sb  Sb2       1.0  0.05326838627087177  0.6780279173295422  0.4947186375381258  1.0000
  Sb  Sb3       1.0  0.8737044681680907  0.2745320738755069  0.8676898549840321  1.0000
  Sb  Sb4       1.0  0.12537833232316828  0.7951456855837525  0.0776246404280394  1.0000
  Sb  Sb5       1.0  0.446233617239621  0.4128863504238907  0.32264277432807026  1.0000
  Sb  Sb6       1.0  0.45808991232818963  0.4056213405245962  0.6285387696903642  1.0000
  Sb  Sb7       1.0  0.5134031970884271  0.5820633450430771  0.13159034758058138  1.0000
  Sb  Sb8       1.0  0.5836922740023921  0.5488657405561024  0.8939777574255976  1.0000
  Sb  Sb9       1.0  0.8177757925410983  0.39649276290217894  0.22636652456898307  1.0000
  Sb  Sb10      1.0  0.42635120342491395  0.7441191179202156  0.729417780974635  1.0000
  O   O1        1.0  0.3223459665636836  0.6369425536730006  0.26012564527627563  1.0000
  O   O2        1.0  0.5449284406458932  0.2472491255743399  0.7483968491631859  1.0000
data_image108
_chemical_formula_structural       Eu10Cd4Sb10O2
_chemical_formula_sum              "Eu10 Cd4 Sb10 O2"
_cell_length_a       11.24426501306804
_cell_length_b       11.24426501306804
_cell_length_c       14.850709
_cell_angle_alpha    90.0
_cell_angle_beta     90.0
_cell_angle_gamma    155.89846091665316

_space_group_name_H-M_alt    "P 1"
_space_group_IT_number       1

loop_
  _space_group_symop_operation_xyz
  'x, y, z'

loop_
  _atom_site_type_symbol
  _atom_site_label
  _atom_site_symmetry_multiplicity
  _atom_site_fract_x
  _atom_site_fract_y
  _atom_site_fract_z
  _atom_site_occupancy
  Eu  Eu1       1.0  0.5306126890173896  0.2255346187173986  0.9000882381635895  1.0000
  Eu  Eu2       1.0  0.35460446068404394  0.7598177240017141  0.15164878470466903  1.0000
  Eu  Eu3       1.0  0.6950504742087323  0.21484387319847348  0.669839921313459  1.0000
  Eu  Eu4       1.0  0.24584927031571222  0.6603480564143087  0.40837329956072344  1.0000
  Eu  Eu5       1.0  0.8676071142145503  0.060165570136186085  0.2781299178528426  1.0000
  Eu  Eu6       1.0  0.004349305146487737  0.7771793164749587  0.7207952553710413  1.0000
  Eu  Eu7       1.0  0.03240860149244968  0.9121101770477894  0.20266838220460717  1.0000
  Eu  Eu8       1.0  0.9540170078853999  0.08310945515516506  0.7854546712867281  1.0000
  Eu  Eu9       1.0  0.018746507553136435  0.9324543228805697  0.4618870062961773  1.0000
  Eu  Eu10      1.0  0.9730974880598491  0.10344115214157878  0.011849625117375227  1.0000
  Cd  Cd1       1.0  0.5260856651990765  0.2039707976975685  0.3864549936294046  1.0000
  Cd  Cd2       1.0  0.5400349468496803  0.6632692724342286  0.5058255307115679  1.0000
  Cd  Cd3       1.0  0.5874586513147994  0.4208040561110922  0.06818927381957993  1.0000
  Cd  Cd4       1.0  0.4203989715385374  0.7853139680330379  0.9531921795452063  1.0000
  Sb  Sb1       1.0  0.0753421840486923  0.37791123941713683  0.5845246982597143  1.0000
  Sb  Sb2       1.0  0.08039748830235482  0.7322264703644688  0.5169627677403339  1.0000
  Sb  Sb3       1.0  0.8688589189784905  0.30217317571467933  0.8788428674393434  1.0000
  Sb  Sb4       1.0  0.2238313001364969  0.8860276368532701  0.06566422406841643  1.0000
  Sb  Sb5       1.0  0.4536462712853103  0.4378028604130502  0.32548133658342293  1.0000
  Sb  Sb6       1.0  0.35396159033913865  0.32043487916329405  0.6430376407616626  1.0000
  Sb  Sb7       1.0  0.4653528872274215  0.5629131879543087  0.11214620389895118  1.0000
  Sb  Sb8       1.0  0.5979205993227177  0.5463428919682904  0.8717520699844133  1.0000
  Sb  Sb9       1.0  0.8634377765862469  0.4452408353771707  0.2388038257693836  1.0000
  Sb  Sb10      1.0  0.40291096649276953  0.7077775052378057  0.7266210730055102  1.0000
  O   O1        1.0  0.3680917955279192  0.6824813529822381  0.2864551590871467  1.0000
  O   O2        1.0  0.48753476493273573  0.20140240930703418  0.7282864870555281  1.0000
data_image109
_chemical_formula_structural       Eu10Cd4Sb10O2
_chemical_formula_sum              "Eu10 Cd4 Sb10 O2"
_cell_length_a       11.24426501306804
_cell_length_b       11.24426501306804
_cell_length_c       14.850709
_cell_angle_alpha    90.0
_cell_angle_beta     90.0
_cell_angle_gamma    155.89846091665316

_space_group_name_H-M_alt    "P 1"
_space_group_IT_number       1

loop_
  _space_group_symop_operation_xyz
  'x, y, z'

loop_
  _atom_site_type_symbol
  _atom_site_label
  _atom_site_symmetry_multiplicity
  _atom_site_fract_x
  _atom_site_fract_y
  _atom_site_fract_z
  _atom_site_occupancy
  Eu  Eu1       1.0  0.5477005878685688  0.1989254521217171  0.8869128312740961  1.0000
  Eu  Eu2       1.0  0.428473765120506  0.8226723356342751  0.17374660491179156  1.0000
  Eu  Eu3       1.0  0.6031289577869619  0.10857265865559157  0.638371153780233  1.0000
  Eu  Eu4       1.0  0.3204418790761036  0.7699844805985946  0.4056069442351886  1.0000
  Eu  Eu5       1.0  0.9596446410069646  0.12006071117775939  0.27601636464122065  1.0000
  Eu  Eu6       1.0  0.943280300851448  0.741565546422153  0.7101100282390974  1.0000
  Eu  Eu7       1.0  0.9965601396348479  0.8727173217182222  0.23761710901312566  1.0000
  Eu  Eu8       1.0  0.012473075093532904  0.1547871498189933  0.7906690715451785  1.0000
  Eu  Eu9       1.0  0.9741782079635435  0.9039395822458025  0.4682642691287682  1.0000
  Eu  Eu10      1.0  0.9982714722921154  0.11083512756352154  0.9901066444469624  1.0000
  Cd  Cd1       1.0  0.4854082266155174  0.17994735379960347  0.40850057171610993  1.0000
  Cd  Cd2       1.0  0.4221101783450336  0.5559726072324542  0.4908256033025476  1.0000
  Cd  Cd3       1.0  0.615410919241325  0.48420831282320864  0.04380401861240679  1.0000
  Cd  Cd4       1.0  0.37729432262687107  0.7642059104222769  0.9601823076769379  1.0000
  Sb  Sb1       1.0  0.0019827359193673733  0.29342624489264574  0.563432348347218  1.0000
  Sb  Sb2       1.0  0.050491570648245596  0.6948902893125211  0.5413204155330018  1.0000
  Sb  Sb3       1.0  0.9410878318719809  0.3532787970726255  0.8744299666206703  1.0000
  Sb  Sb4       1.0  0.19390128073972604  0.8869749370359574  0.05552104001429137  1.0000
  Sb  Sb5       1.0  0.5214231204603783  0.5130876617349515  0.3344236919890293  1.0000
  Sb  Sb6       1.0  0.37846372547252954  0.3394567708686014  0.6371376238504607  1.0000
  Sb  Sb7       1.0  0.5308970555024382  0.6215488935037681  0.1465508815165762  1.0000
  Sb  Sb8       1.0  0.6374263756391731  0.5816721469881538  0.8628277055141631  1.0000
  Sb  Sb9       1.0  0.7935389723375149  0.36067038282302294  0.23949061105179034  1.0000
  Sb  Sb10      1.0  0.3587105451023032  0.6602938929979715  0.735749744565937  1.0000
  O   O1        1.0  0.40189060227884893  0.7210738790605594  0.2965940598818693  1.0000
  O   O2        1.0  0.47550220223410433  0.1745699548328533  0.710856913297321  1.0000
data_image110
_chemical_formula_structural       Eu10Cd4Sb10O2
_chemical_formula_sum              "Eu10 Cd4 Sb10 O2"
_cell_length_a       11.24426501306804
_cell_length_b       11.24426501306804
_cell_length_c       14.850709
_cell_angle_alpha    90.0
_cell_angle_beta     90.0
_cell_angle_gamma    155.89846091665316

_space_group_name_H-M_alt    "P 1"
_space_group_IT_number       1

loop_
  _space_group_symop_operation_xyz
  'x, y, z'

loop_
  _atom_site_type_symbol
  _atom_site_label
  _atom_site_symmetry_multiplicity
  _atom_site_fract_x
  _atom_site_fract_y
  _atom_site_fract_z
  _atom_site_occupancy
  Eu  Eu1       1.0  0.5740023148317341  0.19910709397354406  0.8864678406351886  1.0000
  Eu  Eu2       1.0  0.41361505930186504  0.8047778691250597  0.19090613514339513  1.0000
  Eu  Eu3       1.0  0.5387803014182369  0.06609912591770886  0.6138267773612792  1.0000
  Eu  Eu4       1.0  0.34008892836756266  0.7892792900841903  0.4058911940121253  1.0000
  Eu  Eu5       1.0  0.9199476938682555  0.12325457692763893  0.2800288998951049  1.0000
  Eu  Eu6       1.0  0.8794560375788814  0.6775221223260388  0.7183876590989473  1.0000
  Eu  Eu7       1.0  0.0001682362936354366  0.8343420294328827  0.22053491875457523  1.0000
  Eu  Eu8       1.0  0.005751096199004824  0.1279839546396349  0.7635906545559874  1.0000
  Eu  Eu9       1.0  0.9601955185689788  0.8705619349997468  0.49547199586510976  1.0000
  Eu  Eu10      1.0  0.09380358028885363  0.22399754085466816  0.9705105471183901  1.0000
  Cd  Cd1       1.0  0.542209002947669  0.27315084312383386  0.4159184171925817  1.0000
  Cd  Cd2       1.0  0.44710516940889394  0.6143496880803849  0.4894909526507938  1.0000
  Cd  Cd3       1.0  0.6443472144211911  0.4977163224163047  0.041176878089502184  1.0000
  Cd  Cd4       1.0  0.5200254360603958  0.9135527049454701  0.9836407655064232  1.0000
  Sb  Sb1       1.0  0.8831520155967857  0.15613564526452636  0.5574360693471463  1.0000
  Sb  Sb2       1.0  0.9811027773160743  0.626289579735289  0.5326744909152454  1.0000
  Sb  Sb3       1.0  0.9705912355977095  0.34798176620088855  0.8639439544799333  1.0000
  Sb  Sb4       1.0  0.23547150365686878  0.9342710591068843  0.06744228491810245  1.0000
  Sb  Sb5       1.0  0.5010716391242217  0.48466376993471355  0.363186112214992  1.0000
  Sb  Sb6       1.0  0.41938702521123183  0.37547023064166646  0.6177617167763059  1.0000
  Sb  Sb7       1.0  0.5486291013881099  0.6731681871604358  0.1375401142642434  1.0000
  Sb  Sb8       1.0  0.5810296468241497  0.5480871333494992  0.8826072235772291  1.0000
  Sb  Sb9       1.0  0.7919259277773654  0.3242179442702816  0.2664712736418843  1.0000
  Sb  Sb10      1.0  0.351636440121455  0.6785466896931804  0.7119219092057707  1.0000
  O   O1        1.0  0.31692374276285856  0.6275887476160035  0.3077672265661578  1.0000
  O   O2        1.0  0.4155014493371263  0.06113331086931873  0.7324388444369611  1.0000
data_image111
_chemical_formula_structural       Eu10Cd4Sb10O2
_chemical_formula_sum              "Eu10 Cd4 Sb10 O2"
_cell_length_a       11.24426501306804
_cell_length_b       11.24426501306804
_cell_length_c       14.850709
_cell_angle_alpha    90.0
_cell_angle_beta     90.0
_cell_angle_gamma    155.89846091665316

_space_group_name_H-M_alt    "P 1"
_space_group_IT_number       1

loop_
  _space_group_symop_operation_xyz
  'x, y, z'

loop_
  _atom_site_type_symbol
  _atom_site_label
  _atom_site_symmetry_multiplicity
  _atom_site_fract_x
  _atom_site_fract_y
  _atom_site_fract_z
  _atom_site_occupancy
  Eu  Eu1       1.0  0.6500275416242024  0.28601210198921323  0.8610409616842363  1.0000
  Eu  Eu2       1.0  0.31480138843442684  0.701906129324656  0.18378255497492035  1.0000
  Eu  Eu3       1.0  0.5148000956120313  0.0729192443448353  0.6400987883694198  1.0000
  Eu  Eu4       1.0  0.35075674991427713  0.8092972903033406  0.43825623439940087  1.0000
  Eu  Eu5       1.0  0.9037976945876094  0.11952050144887824  0.3179212293465833  1.0000
  Eu  Eu6       1.0  0.868515312989423  0.6473551809168687  0.7266803969287848  1.0000
  Eu  Eu7       1.0  0.9705162855892345  0.8005914269340617  0.21796658790239068  1.0000
  Eu  Eu8       1.0  0.9850880390840567  0.11012121966370299  0.7342012775818233  1.0000
  Eu  Eu9       1.0  0.9966256990329531  0.9077652863225214  0.49295920774983903  1.0000
  Eu  Eu10      1.0  0.08617123756425095  0.20534544406104252  0.9709201046112588  1.0000
  Cd  Cd1       1.0  0.5504567243888776  0.306937504009868  0.40269488114434243  1.0000
  Cd  Cd2       1.0  0.44121228879759133  0.6224380819290504  0.5096421425672958  1.0000
  Cd  Cd3       1.0  0.6666095907247954  0.5107790562471091  0.01925892804666011  1.0000
  Cd  Cd4       1.0  0.5954540098256991  0.018028803491671574  0.9923279485153212  1.0000
  Sb  Sb1       1.0  0.8921656477265538  0.17487682322219528  0.5724705413203148  1.0000
  Sb  Sb2       1.0  0.9268220516013006  0.5766740167125161  0.5387857013495101  1.0000
  Sb  Sb3       1.0  0.08427283556064946  0.43986099396840295  0.8777042714023686  1.0000
  Sb  Sb4       1.0  0.30067141752666704  0.9668349230766221  0.03408098797077397  1.0000
  Sb  Sb5       1.0  0.458216917789022  0.44179266348586355  0.33951249668553396  1.0000
  Sb  Sb6       1.0  0.39976873420465703  0.36718895975500493  0.6166670067123571  1.0000
  Sb  Sb7       1.0  0.531537600608778  0.6406601414326433  0.12504380998705616  1.0000
  Sb  Sb8       1.0  0.539152990809593  0.4990112994382038  0.8533759292539035  1.0000
  Sb  Sb9       1.0  0.775382573662353  0.2854482700007786  0.30971703434302206  1.0000
  Sb  Sb10      1.0  0.37312663948941516  0.6876296661184051  0.6833373258026665  1.0000
  O   O1        1.0  0.3897073854952101  0.6591599836338708  0.35184569637160296  1.0000
  O   O2        1.0  0.3059178921105228  0.9544542360181157  0.7473616285679074  1.0000
data_image112
_chemical_formula_structural       Eu10Cd4Sb10O2
_chemical_formula_sum              "Eu10 Cd4 Sb10 O2"
_cell_length_a       11.24426501306804
_cell_length_b       11.24426501306804
_cell_length_c       14.850709
_cell_angle_alpha    90.0
_cell_angle_beta     90.0
_cell_angle_gamma    155.89846091665316

_space_group_name_H-M_alt    "P 1"
_space_group_IT_number       1

loop_
  _space_group_symop_operation_xyz
  'x, y, z'

loop_
  _atom_site_type_symbol
  _atom_site_label
  _atom_site_symmetry_multiplicity
  _atom_site_fract_x
  _atom_site_fract_y
  _atom_site_fract_z
  _atom_site_occupancy
  Eu  Eu1       1.0  0.6684692711699165  0.3112137544413899  0.8492719909297376  1.0000
  Eu  Eu2       1.0  0.31334904731559304  0.6970121681400004  0.18209050618187006  1.0000
  Eu  Eu3       1.0  0.45741762782388606  0.02576457812644885  0.6638719047558221  1.0000
  Eu  Eu4       1.0  0.3879571211981083  0.8351152693643227  0.4721540169003163  1.0000
  Eu  Eu5       1.0  0.8887169322471732  0.07457139919271799  0.3347910218105956  1.0000
  Eu  Eu6       1.0  0.9092731671224334  0.716619224820322  0.7140304614681124  1.0000
  Eu  Eu7       1.0  0.9321838504552639  0.7731983310704684  0.2226861560031307  1.0000
  Eu  Eu8       1.0  0.9735521049364643  0.08213769572874575  0.7289849157467276  1.0000
  Eu  Eu9       1.0  0.9834382612409999  0.9048239701064928  0.4649874959730544  1.0000
  Eu  Eu10      1.0  0.05003630112210673  0.13092985025950024  0.9613628739755594  1.0000
  Cd  Cd1       1.0  0.4310733107851811  0.1729356680513443  0.42553393821265106  1.0000
  Cd  Cd2       1.0  0.49449293300001307  0.6197297140008542  0.49771681185063976  1.0000
  Cd  Cd3       1.0  0.6493822156327036  0.4878130114740431  0.9955617226835729  1.0000
  Cd  Cd4       1.0  0.6201901303212657  0.047976997066647264  0.0024562542990740344  1.0000
  Sb  Sb1       1.0  0.9511863877369512  0.27940933755510255  0.5392330864555778  1.0000
  Sb  Sb2       1.0  0.8292058622743868  0.509078908915764  0.5381620886445097  1.0000
  Sb  Sb3       1.0  0.17218270976854555  0.5487487767934669  0.888880004583401  1.0000
  Sb  Sb4       1.0  0.413397975490038  0.07399220363207659  0.04279414937009296  1.0000
  Sb  Sb5       1.0  0.44792589680099737  0.42217783682264676  0.32703351897674343  1.0000
  Sb  Sb6       1.0  0.4110907019705107  0.36913599897762983  0.6100757254776874  1.0000
  Sb  Sb7       1.0  0.5875021184807085  0.6464313195971589  0.13546180019700826  1.0000
  Sb  Sb8       1.0  0.5524325785767535  0.5186947016593134  0.8394597763041475  1.0000
  Sb  Sb9       1.0  0.7719779638007714  0.3344051148189675  0.32455291363153554  1.0000
  Sb  Sb10      1.0  0.29567584631216903  0.6310267408268752  0.691238767030628  1.0000
  O   O1        1.0  0.48508061032311733  0.7825540325693452  0.3288707279205662  1.0000
  O   O2        1.0  0.20125807323781042  0.8581085948175718  0.7945470422162417  1.0000
data_image113
_chemical_formula_structural       Eu10Cd4Sb10O2
_chemical_formula_sum              "Eu10 Cd4 Sb10 O2"
_cell_length_a       11.24426501306804
_cell_length_b       11.24426501306804
_cell_length_c       14.850709
_cell_angle_alpha    90.0
_cell_angle_beta     90.0
_cell_angle_gamma    155.89846091665316

_space_group_name_H-M_alt    "P 1"
_space_group_IT_number       1

loop_
  _space_group_symop_operation_xyz
  'x, y, z'

loop_
  _atom_site_type_symbol
  _atom_site_label
  _atom_site_symmetry_multiplicity
  _atom_site_fract_x
  _atom_site_fract_y
  _atom_site_fract_z
  _atom_site_occupancy
  Eu  Eu1       1.0  0.7689592539962843  0.39682733197763664  0.8560059506145355  1.0000
  Eu  Eu2       1.0  0.3618247583736604  0.7539977694769429  0.2104608766000421  1.0000
  Eu  Eu3       1.0  0.4138184194736171  0.9850523132029576  0.6624491137940681  1.0000
  Eu  Eu4       1.0  0.4489572626834243  0.9130228054215141  0.45808248586442496  1.0000
  Eu  Eu5       1.0  0.8587568390472424  0.0712108485930084  0.3504909486572983  1.0000
  Eu  Eu6       1.0  0.07122213720706061  0.923852534615608  0.7294503290482396  1.0000
  Eu  Eu7       1.0  0.0785677362720503  0.8804071078295479  0.2111423990966897  1.0000
  Eu  Eu8       1.0  0.8751797758886256  0.000867606603090706  0.7230917973056635  1.0000
  Eu  Eu9       1.0  0.8879545869660893  0.8256859701817294  0.4621447381643011  1.0000
  Eu  Eu10      1.0  0.993002183995388  0.06439119461087811  0.9600585032483901  1.0000
  Cd  Cd1       1.0  0.3057863434607827  0.03668681242732394  0.3936442025701595  1.0000
  Cd  Cd2       1.0  0.4411764122975368  0.6202083954699961  0.5031849648101832  1.0000
  Cd  Cd3       1.0  0.711771546057113  0.5832165136723972  0.025278921650075385  1.0000
  Cd  Cd4       1.0  0.579477124908608  0.9544987415483521  0.004478970338935628  1.0000
  Sb  Sb1       1.0  0.944933875589455  0.23449319622827075  0.5340395038086758  1.0000
  Sb  Sb2       1.0  0.8966292341655839  0.54705572817061  0.5228854594677782  1.0000
  Sb  Sb3       1.0  0.11430477890900592  0.43112636412725525  0.9027126669863822  1.0000
  Sb  Sb4       1.0  0.4495791957917646  0.08761931485799357  0.06256267814110328  1.0000
  Sb  Sb5       1.0  0.4228409826389422  0.40027649695688483  0.3104003137150281  1.0000
  Sb  Sb6       1.0  0.4149870410373529  0.3633831289314781  0.6145834599690689  1.0000
  Sb  Sb7       1.0  0.5601612226735866  0.6461354853640979  0.12861179690923816  1.0000
  Sb  Sb8       1.0  0.48626862075153576  0.45551456518540057  0.8403950445596994  1.0000
  Sb  Sb9       1.0  0.7597543823471941  0.3528567561206904  0.2861774431075879  1.0000
  Sb  Sb10      1.0  0.2856572868330015  0.6003134888895252  0.6920259875664914  1.0000
  O   O1        1.0  0.43635463807476993  0.7859499267362641  0.351707008185351  1.0000
  O   O2        1.0  0.27640248529391237  0.9411420744767739  0.7841012898522111  1.0000
data_image114
_chemical_formula_structural       Eu10Cd4Sb10O2
_chemical_formula_sum              "Eu10 Cd4 Sb10 O2"
_cell_length_a       11.24426501306804
_cell_length_b       11.24426501306804
_cell_length_c       14.850709
_cell_angle_alpha    90.0
_cell_angle_beta     90.0
_cell_angle_gamma    155.89846091665316

_space_group_name_H-M_alt    "P 1"
_space_group_IT_number       1

loop_
  _space_group_symop_operation_xyz
  'x, y, z'

loop_
  _atom_site_type_symbol
  _atom_site_label
  _atom_site_symmetry_multiplicity
  _atom_site_fract_x
  _atom_site_fract_y
  _atom_site_fract_z
  _atom_site_occupancy
  Eu  Eu1       1.0  0.856959013481157  0.4844039474837768  0.8922427392423616  1.0000
  Eu  Eu2       1.0  0.35943874473896853  0.8020095934860405  0.23092148442496255  1.0000
  Eu  Eu3       1.0  0.5181305888876275  0.07611321198812489  0.6747128198964369  1.0000
  Eu  Eu4       1.0  0.47429595381287265  0.9241437462643396  0.4634531326847678  1.0000
  Eu  Eu5       1.0  0.8764295308199335  0.07909967857762124  0.3183910203261577  1.0000
  Eu  Eu6       1.0  0.09993263923141314  0.9330770584815092  0.736142868511083  1.0000
  Eu  Eu7       1.0  0.09563463726420493  0.8527990939892086  0.17427096964061511  1.0000
  Eu  Eu8       1.0  0.7637069449681121  0.9146379446852779  0.7214586862545005  1.0000
  Eu  Eu9       1.0  0.8287258003392904  0.748610911650173  0.45716136831412896  1.0000
  Eu  Eu10      1.0  0.9566923019338385  0.029684240047236892  0.9730485959150469  1.0000
  Cd  Cd1       1.0  0.34923202034195217  0.0582175690414737  0.3957504379199551  1.0000
  Cd  Cd2       1.0  0.48927188557725365  0.6273293565874782  0.4997038328971027  1.0000
  Cd  Cd3       1.0  0.64065812914345  0.5099161619519004  0.0199485934320949  1.0000
  Cd  Cd4       1.0  0.6439613618812279  0.002873386753260432  0.035798440394583686  1.0000
  Sb  Sb1       1.0  0.9316925783539746  0.2124687581769956  0.5453637920203712  1.0000
  Sb  Sb2       1.0  0.9176575752892726  0.5983024671571879  0.5167601677709334  1.0000
  Sb  Sb3       1.0  0.09450461066346261  0.4089834383456943  0.9205549514859536  1.0000
  Sb  Sb4       1.0  0.4907122047188278  0.10547696659104422  0.0539813829463236  1.0000
  Sb  Sb5       1.0  0.39794284367687965  0.3916393356821752  0.27900410022187827  1.0000
  Sb  Sb6       1.0  0.3501440523807141  0.3059234130637843  0.599676415861404  1.0000
  Sb  Sb7       1.0  0.5115680700951917  0.6209923309831857  0.12742647716061337  1.0000
  Sb  Sb8       1.0  0.5301045562314293  0.5291494735941683  0.8542101660540131  1.0000
  Sb  Sb9       1.0  0.7529284952092642  0.36457734563977484  0.2432575562553801  1.0000
  Sb  Sb10      1.0  0.18253175778846853  0.5362140291816062  0.7080792594608802  1.0000
  O   O1        1.0  0.36219935796913455  0.6850212925665451  0.34207440942154993  1.0000
  O   O2        1.0  0.40659108923651005  0.07473346223309557  0.7932366388350909  1.0000
data_image115
_chemical_formula_structural       Eu10Cd4Sb10O2
_chemical_formula_sum              "Eu10 Cd4 Sb10 O2"
_cell_length_a       11.24426501306804
_cell_length_b       11.24426501306804
_cell_length_c       14.850709
_cell_angle_alpha    90.0
_cell_angle_beta     90.0
_cell_angle_gamma    155.89846091665316

_space_group_name_H-M_alt    "P 1"
_space_group_IT_number       1

loop_
  _space_group_symop_operation_xyz
  'x, y, z'

loop_
  _atom_site_type_symbol
  _atom_site_label
  _atom_site_symmetry_multiplicity
  _atom_site_fract_x
  _atom_site_fract_y
  _atom_site_fract_z
  _atom_site_occupancy
  Eu  Eu1       1.0  0.9563640621624644  0.5831270669662026  0.8917681947435236  1.0000
  Eu  Eu2       1.0  0.33068283492726025  0.7754127319160442  0.23136080614378945  1.0000
  Eu  Eu3       1.0  0.5808000900819759  0.10055592981601594  0.6621198958935307  1.0000
  Eu  Eu4       1.0  0.42921544336711714  0.8909996479223622  0.4494116300874161  1.0000
  Eu  Eu5       1.0  0.9189415336018028  0.11013476891840576  0.3131013557685449  1.0000
  Eu  Eu6       1.0  0.016506532093031583  0.7894679028546198  0.753937691508839  1.0000
  Eu  Eu7       1.0  0.08968956063961508  0.8801081846465001  0.17887496254563695  1.0000
  Eu  Eu8       1.0  0.8441866961896963  0.017799283540703623  0.7182288803638265  1.0000
  Eu  Eu9       1.0  0.8295632844372454  0.7481163664120132  0.43053458874107536  1.0000
  Eu  Eu10      1.0  0.9618426686858147  0.0262718650791459  0.9968260184871292  1.0000
  Cd  Cd1       1.0  0.41399450650315367  0.1544615660653082  0.3964676099565024  1.0000
  Cd  Cd2       1.0  0.4247019970535331  0.5932594207349859  0.46363085727643727  1.0000
  Cd  Cd3       1.0  0.5932065891282768  0.4746707945287439  0.040631584480255695  1.0000
  Cd  Cd4       1.0  0.6931206569475936  0.017042207557002476  0.03431911778165153  1.0000
  Sb  Sb1       1.0  0.923771154043789  0.16371658269475967  0.5286057072682524  1.0000
  Sb  Sb2       1.0  0.914425702528144  0.5641422300568248  0.5162224733174073  1.0000
  Sb  Sb3       1.0  0.13886320843290934  0.4633085917839118  0.9372418661900952  1.0000
  Sb  Sb4       1.0  0.5328976190580395  0.14266873022725468  0.03258628607693703  1.0000
  Sb  Sb5       1.0  0.39229572249188066  0.36901767030187127  0.296707697404024  1.0000
  Sb  Sb6       1.0  0.3440415864305116  0.3169520781105222  0.6286337189813789  1.0000
  Sb  Sb7       1.0  0.4259946906665705  0.580783543976029  0.13923787862865333  1.0000
  Sb  Sb8       1.0  0.4627069963559351  0.46650122389382515  0.8328431861923993  1.0000
  Sb  Sb9       1.0  0.6769351967026725  0.30054223661597146  0.23136064847073104  1.0000
  Sb  Sb10      1.0  0.12634860024562852  0.505962799492527  0.7405354182729341  1.0000
  O   O1        1.0  0.6017017756839019  0.956244363460443  0.34768488303234835  1.0000
  O   O2        1.0  0.6185417173362332  0.28731868123691995  0.776944681271751  1.0000
data_image116
_chemical_formula_structural       Eu10Cd4Sb10O2
_chemical_formula_sum              "Eu10 Cd4 Sb10 O2"
_cell_length_a       11.24426501306804
_cell_length_b       11.24426501306804
_cell_length_c       14.850709
_cell_angle_alpha    90.0
_cell_angle_beta     90.0
_cell_angle_gamma    155.89846091665316

_space_group_name_H-M_alt    "P 1"
_space_group_IT_number       1

loop_
  _space_group_symop_operation_xyz
  'x, y, z'

loop_
  _atom_site_type_symbol
  _atom_site_label
  _atom_site_symmetry_multiplicity
  _atom_site_fract_x
  _atom_site_fract_y
  _atom_site_fract_z
  _atom_site_occupancy
  Eu  Eu1       1.0  0.9588213444915701  0.566241569356679  0.9040194214225415  1.0000
  Eu  Eu2       1.0  0.32412116871469493  0.7530112428620801  0.20765664579923904  1.0000
  Eu  Eu3       1.0  0.5451944503673437  0.06667023235419833  0.6583509279932974  1.0000
  Eu  Eu4       1.0  0.4749337475856561  0.9562146382155449  0.4173371829763364  1.0000
  Eu  Eu5       1.0  0.9482238471343358  0.15958294409608614  0.2917250133148356  1.0000
  Eu  Eu6       1.0  0.9829757556655828  0.7523033207723325  0.7453620863173889  1.0000
  Eu  Eu7       1.0  0.06709864273217821  0.8912603774989527  0.16923497320661243  1.0000
  Eu  Eu8       1.0  0.9226421562136969  0.10216913169327639  0.731931636638941  1.0000
  Eu  Eu9       1.0  0.8669940707088643  0.8238811382015494  0.477760895705489  1.0000
  Eu  Eu10      1.0  0.9820155801465753  0.0533227995803614  0.014353210816167148  1.0000
  Cd  Cd1       1.0  0.3935512919197032  0.13935196258123775  0.3788000740770645  1.0000
  Cd  Cd2       1.0  0.41924222941653866  0.5428827818222614  0.4458392708882214  1.0000
  Cd  Cd3       1.0  0.5845540072249493  0.4386134515780666  0.021413345574476727  1.0000
  Cd  Cd4       1.0  0.6868397208873845  0.025652690129952083  0.062134905656428874  1.0000
  Sb  Sb1       1.0  0.8462492494710003  0.09787313407120804  0.5263134908140413  1.0000
  Sb  Sb2       1.0  0.8460843527056874  0.47054876836171344  0.5144742485841766  1.0000
  Sb  Sb3       1.0  0.14317507365678073  0.47372207890889345  0.9469487389748004  1.0000
  Sb  Sb4       1.0  0.4287680180433178  0.03332736860835217  0.05201409694644421  1.0000
  Sb  Sb5       1.0  0.3641406552105765  0.3152258719895792  0.30833995204809833  1.0000
  Sb  Sb6       1.0  0.39290281875150856  0.34442842735073304  0.6211288301878364  1.0000
  Sb  Sb7       1.0  0.45761228075693666  0.6112271256722699  0.16190616757273146  1.0000
  Sb  Sb8       1.0  0.3860552917393823  0.3592790731173325  0.7920893864383525  1.0000
  Sb  Sb9       1.0  0.7513454984915694  0.37940571490764075  0.22940539748078678  1.0000
  Sb  Sb10      1.0  0.2118466497864366  0.6087858425863537  0.7710542947207211  1.0000
  O   O1        1.0  0.7452302587464414  0.17029791303108088  0.29932233825394244  1.0000
  O   O2        1.0  0.5102560261366225  0.17417152395534774  0.8027682223671108  1.0000
data_image117
_chemical_formula_structural       Eu10Cd4Sb10O2
_chemical_formula_sum              "Eu10 Cd4 Sb10 O2"
_cell_length_a       11.24426501306804
_cell_length_b       11.24426501306804
_cell_length_c       14.850709
_cell_angle_alpha    90.0
_cell_angle_beta     90.0
_cell_angle_gamma    155.89846091665316

_space_group_name_H-M_alt    "P 1"
_space_group_IT_number       1

loop_
  _space_group_symop_operation_xyz
  'x, y, z'

loop_
  _atom_site_type_symbol
  _atom_site_label
  _atom_site_symmetry_multiplicity
  _atom_site_fract_x
  _atom_site_fract_y
  _atom_site_fract_z
  _atom_site_occupancy
  Eu  Eu1       1.0  0.9025973082878693  0.5218092798115783  0.9073255712409694  1.0000
  Eu  Eu2       1.0  0.30016017279130025  0.7441948046446863  0.20233662599623345  1.0000
  Eu  Eu3       1.0  0.5628002929820494  0.10163814376365549  0.6600312138051464  1.0000
  Eu  Eu4       1.0  0.42130425948803596  0.8696112409850961  0.40919305697349956  1.0000
  Eu  Eu5       1.0  0.9179623834958596  0.13111731959162964  0.2798204659047622  1.0000
  Eu  Eu6       1.0  0.9338301458483369  0.7397483723744419  0.7310004077983461  1.0000
  Eu  Eu7       1.0  0.0698835112480536  0.9036608849282514  0.16853416209372324  1.0000
  Eu  Eu8       1.0  0.9730590593103507  0.13631432359174858  0.7516442107940369  1.0000
  Eu  Eu9       1.0  0.9289290221640288  0.8579718147279588  0.5052008193191009  1.0000
  Eu  Eu10      1.0  0.0028493795209892  0.053334635864102496  0.027895410804814925  1.0000
  Cd  Cd1       1.0  0.3745371470370286  0.10395492608562776  0.3620125270603689  1.0000
  Cd  Cd2       1.0  0.3598312036396721  0.5186071934317662  0.4629070575651582  1.0000
  Cd  Cd3       1.0  0.5605324940213058  0.40369309942676784  0.01682423678711263  1.0000
  Cd  Cd4       1.0  0.6685595731986684  0.015388091519699998  0.030796898211071566  1.0000
  Sb  Sb1       1.0  0.847284665558923  0.12546039088834338  0.5109144488825561  1.0000
  Sb  Sb2       1.0  0.8331903460312593  0.48777438544260215  0.49678858935383796  1.0000
  Sb  Sb3       1.0  0.20443846937536803  0.4916343470798658  0.9454713637869253  1.0000
  Sb  Sb4       1.0  0.3272090187523013  0.9454746369576353  0.05657320339566985  1.0000
  Sb  Sb5       1.0  0.5014368499127253  0.4982641343133042  0.3256791671934198  1.0000
  Sb  Sb6       1.0  0.423487497449278  0.33968624315038265  0.6000443746427493  1.0000
  Sb  Sb7       1.0  0.4454642645067724  0.58601426031025  0.15359796892490063  1.0000
  Sb  Sb8       1.0  0.3970425277440365  0.3483599140153526  0.8291760772411265  1.0000
  Sb  Sb9       1.0  0.744396715808375  0.39513491416638236  0.24571282223845223  1.0000
  Sb  Sb10      1.0  0.2186656943111051  0.5930563620435094  0.766119535584591  1.0000
  O   O1        1.0  0.9000729477548093  0.29514741088766416  0.31445059569928097  1.0000
  O   O2        1.0  0.8798910940868246  0.4964198931844068  0.7483079593916255  1.0000
data_image118
_chemical_formula_structural       Eu10Cd4Sb10O2
_chemical_formula_sum              "Eu10 Cd4 Sb10 O2"
_cell_length_a       11.24426501306804
_cell_length_b       11.24426501306804
_cell_length_c       14.850709
_cell_angle_alpha    90.0
_cell_angle_beta     90.0
_cell_angle_gamma    155.89846091665316

_space_group_name_H-M_alt    "P 1"
_space_group_IT_number       1

loop_
  _space_group_symop_operation_xyz
  'x, y, z'

loop_
  _atom_site_type_symbol
  _atom_site_label
  _atom_site_symmetry_multiplicity
  _atom_site_fract_x
  _atom_site_fract_y
  _atom_site_fract_z
  _atom_site_occupancy
  Eu  Eu1       1.0  0.9423527435615084  0.5467540769341495  0.8921047958390531  1.0000
  Eu  Eu2       1.0  0.33425689303942707  0.7698444288505008  0.21753773372325805  1.0000
  Eu  Eu3       1.0  0.5234279020347147  0.07156666252044554  0.6665887845379573  1.0000
  Eu  Eu4       1.0  0.2805821400922025  0.7508387216026928  0.4005739195702443  1.0000
  Eu  Eu5       1.0  0.9211733575639321  0.10212938788603693  0.2811349909030626  1.0000
  Eu  Eu6       1.0  0.9190029847500452  0.7802582092823098  0.7380155807245118  1.0000
  Eu  Eu7       1.0  0.040918887046516465  0.8903530919170491  0.17306314262334913  1.0000
  Eu  Eu8       1.0  0.8992665224918044  0.07458360696485596  0.7390031136341998  1.0000
  Eu  Eu9       1.0  0.9146487062048169  0.849868384395065  0.4824312414066771  1.0000
  Eu  Eu10      1.0  0.9839827374514372  0.04340156707538065  0.9965913950335633  1.0000
  Cd  Cd1       1.0  0.1847908346636598  0.9309195763671184  0.36430957609916964  1.0000
  Cd  Cd2       1.0  0.38741922232028253  0.542582119586742  0.47635292836114346  1.0000
  Cd  Cd3       1.0  0.46101130994782996  0.29153240644184025  0.0357045244137409  1.0000
  Cd  Cd4       1.0  0.7069470220229964  0.07788844147763374  0.009004483428600052  1.0000
  Sb  Sb1       1.0  0.8234910732841065  0.10605924184382852  0.5399451052681064  1.0000
  Sb  Sb2       1.0  0.8782369935297328  0.5528039402143125  0.4961742445456389  1.0000
  Sb  Sb3       1.0  0.22637957786640417  0.4752336133751406  0.9279374768750787  1.0000
  Sb  Sb4       1.0  0.5073193593471725  0.08963516408846006  0.06334220893671438  1.0000
  Sb  Sb5       1.0  0.6129598695681492  0.571458356704477  0.3138870565317632  1.0000
  Sb  Sb6       1.0  0.399570612635995  0.32743570798419575  0.6300786063529845  1.0000
  Sb  Sb7       1.0  0.4267678736941645  0.5650532539062145  0.14214701310267808  1.0000
  Sb  Sb8       1.0  0.4743152158185046  0.39313877822633164  0.8680420803073967  1.0000
  Sb  Sb9       1.0  0.7293828941159489  0.39653515093647534  0.23489406542571534  1.0000
  Sb  Sb10      1.0  0.3394614087274939  0.6958171073273998  0.7704638945668162  1.0000
  O   O1        1.0  0.9869916154936363  0.34341502594976725  0.3078709056211717  1.0000
  O   O2        1.0  0.14546984010763486  0.7885830075478177  0.7637519359690088  1.0000
data_image119
_chemical_formula_structural       Eu10Cd4Sb10O2
_chemical_formula_sum              "Eu10 Cd4 Sb10 O2"
_cell_length_a       11.24426501306804
_cell_length_b       11.24426501306804
_cell_length_c       14.850709
_cell_angle_alpha    90.0
_cell_angle_beta     90.0
_cell_angle_gamma    155.89846091665316

_space_group_name_H-M_alt    "P 1"
_space_group_IT_number       1

loop_
  _space_group_symop_operation_xyz
  'x, y, z'

loop_
  _atom_site_type_symbol
  _atom_site_label
  _atom_site_symmetry_multiplicity
  _atom_site_fract_x
  _atom_site_fract_y
  _atom_site_fract_z
  _atom_site_occupancy
  Eu  Eu1       1.0  0.9281658676830519  0.5296391888343016  0.8730248807300346  1.0000
  Eu  Eu2       1.0  0.31381088995196876  0.711664676018907  0.22439055129582397  1.0000
  Eu  Eu3       1.0  0.5579234518699319  0.14107640908573346  0.6522844405971513  1.0000
  Eu  Eu4       1.0  0.3016342354946813  0.7640304015794378  0.4064153440903836  1.0000
  Eu  Eu5       1.0  0.9685079942932867  0.14685358301254764  0.27889288377558474  1.0000
  Eu  Eu6       1.0  0.006523726685573505  0.8513224769592995  0.7519953471294182  1.0000
  Eu  Eu7       1.0  0.06864836658873784  0.9256075954440776  0.19294426413859553  1.0000
  Eu  Eu8       1.0  0.8239875453514544  0.9875274531995029  0.715827686223312  1.0000
  Eu  Eu9       1.0  0.9813111429450991  0.9466513158269114  0.48049583783146643  1.0000
  Eu  Eu10      1.0  0.9403554564488635  0.013545295343145863  0.9905483850173624  1.0000
  Cd  Cd1       1.0  0.1870128827839542  0.9283292503943373  0.37647801059958624  1.0000
  Cd  Cd2       1.0  0.3064740417830291  0.4514883283973722  0.5161242163045683  1.0000
  Cd  Cd3       1.0  0.49847054296740295  0.34749302666275556  0.05478646291163549  1.0000
  Cd  Cd4       1.0  0.7850438370111076  0.10595984583486873  0.9748629606569669  1.0000
  Sb  Sb1       1.0  0.7551346761875147  0.046322755097016666  0.5272738341478969  1.0000
  Sb  Sb2       1.0  0.8045595936682998  0.49469405471500194  0.5233783729829772  1.0000
  Sb  Sb3       1.0  0.31716688138883176  0.5467050748647216  0.9206435076549608  1.0000
  Sb  Sb4       1.0  0.5262746228788446  0.11151849563224259  0.03836773202173438  1.0000
  Sb  Sb5       1.0  0.46116524182828056  0.3995378175392789  0.3022401758513265  1.0000
  Sb  Sb6       1.0  0.3552951365916447  0.3745986598192313  0.6586176975432003  1.0000
  Sb  Sb7       1.0  0.49787617237410275  0.6096414328883669  0.13139415545017497  1.0000
  Sb  Sb8       1.0  0.4270265965488896  0.327401005173485  0.877539876680125  1.0000
  Sb  Sb9       1.0  0.7077577439219498  0.35705389540679183  0.2383249248724855  1.0000
  Sb  Sb10      1.0  0.38658506252916847  0.7657680840209595  0.7727726209484452  1.0000
  O   O1        1.0  0.875767164696188  0.2401281784142406  0.2820877783722511  1.0000
  O   O2        1.0  0.11861848550596599  0.7244625999993155  0.6954503565208617  1.0000
data_image120
_chemical_formula_structural       Eu10Cd4Sb10O2
_chemical_formula_sum              "Eu10 Cd4 Sb10 O2"
_cell_length_a       11.24426501306804
_cell_length_b       11.24426501306804
_cell_length_c       14.850709
_cell_angle_alpha    90.0
_cell_angle_beta     90.0
_cell_angle_gamma    155.89846091665316

_space_group_name_H-M_alt    "P 1"
_space_group_IT_number       1

loop_
  _space_group_symop_operation_xyz
  'x, y, z'

loop_
  _atom_site_type_symbol
  _atom_site_label
  _atom_site_symmetry_multiplicity
  _atom_site_fract_x
  _atom_site_fract_y
  _atom_site_fract_z
  _atom_site_occupancy
  Eu  Eu1       1.0  0.9530377570888355  0.5708168574403093  0.8592783132799893  1.0000
  Eu  Eu2       1.0  0.2762911203894185  0.6837139611248831  0.22873525441468132  1.0000
  Eu  Eu3       1.0  0.5675183747286966  0.13190758119641027  0.64343373958379  1.0000
  Eu  Eu4       1.0  0.23852347951031555  0.7073592162980123  0.41351585471209795  1.0000
  Eu  Eu5       1.0  0.9769591128425889  0.166568951671266  0.28698634097049275  1.0000
  Eu  Eu6       1.0  0.9304035228689015  0.7767529824659729  0.7365135205954743  1.0000
  Eu  Eu7       1.0  0.023300269748456705  0.8509629180004603  0.19933734869941372  1.0000
  Eu  Eu8       1.0  0.7580091008956797  0.9357949281170822  0.6947246999131862  1.0000
  Eu  Eu9       1.0  0.8956433367279444  0.8681600053558374  0.4967595125173921  1.0000
  Eu  Eu10      1.0  0.9492457047151703  0.9710943081114913  0.006931451338988277  1.0000
  Cd  Cd1       1.0  0.2546193485342194  0.9715865735900575  0.3744723952833331  1.0000
  Cd  Cd2       1.0  0.3266610237338772  0.4601281544907177  0.48657768304748444  1.0000
  Cd  Cd3       1.0  0.646691297023826  0.4762767499623849  0.061391788713145753  1.0000
  Cd  Cd4       1.0  0.8152714906030141  0.1915738381141765  0.947239455467808  1.0000
  Sb  Sb1       1.0  0.752056876220459  0.056750240236954574  0.5108222762393103  1.0000
  Sb  Sb2       1.0  0.8282878442049986  0.5205379694839855  0.4773484587206996  1.0000
  Sb  Sb3       1.0  0.4473496500474001  0.6495498083305165  0.913078887219318  1.0000
  Sb  Sb4       1.0  0.5132635326406917  0.10284847064334479  0.047491272356611214  1.0000
  Sb  Sb5       1.0  0.4869476562512681  0.4628022912211937  0.34069260931279  1.0000
  Sb  Sb6       1.0  0.3730183288505678  0.3574731106969565  0.6783925270664507  1.0000
  Sb  Sb7       1.0  0.48905013201085695  0.6463710586959018  0.15076703240683853  1.0000
  Sb  Sb8       1.0  0.42331134625703665  0.3261520592766902  0.9048579531230367  1.0000
  Sb  Sb9       1.0  0.6868026045704588  0.28694055084024306  0.2373220858987427  1.0000
  Sb  Sb10      1.0  0.40595538456361746  0.8208217923949203  0.7791851039599772  1.0000
  O   O1        1.0  0.8374842097963676  0.21347660110102495  0.2364452815663432  1.0000
  O   O2        1.0  0.09631611911268023  0.7678444834616346  0.7368789729277175  1.0000
data_image121
_chemical_formula_structural       Eu10Cd4Sb10O2
_chemical_formula_sum              "Eu10 Cd4 Sb10 O2"
_cell_length_a       11.24426501306804
_cell_length_b       11.24426501306804
_cell_length_c       14.850709
_cell_angle_alpha    90.0
_cell_angle_beta     90.0
_cell_angle_gamma    155.89846091665316

_space_group_name_H-M_alt    "P 1"
_space_group_IT_number       1

loop_
  _space_group_symop_operation_xyz
  'x, y, z'

loop_
  _atom_site_type_symbol
  _atom_site_label
  _atom_site_symmetry_multiplicity
  _atom_site_fract_x
  _atom_site_fract_y
  _atom_site_fract_z
  _atom_site_occupancy
  Eu  Eu1       1.0  0.9141355081727879  0.5390397362007958  0.8997407492233277  1.0000
  Eu  Eu2       1.0  0.29213119282439104  0.7245219646050033  0.18456982603758515  1.0000
  Eu  Eu3       1.0  0.5813693278346503  0.17741379180753128  0.6290560688164684  1.0000
  Eu  Eu4       1.0  0.12072310950367623  0.595539960483702  0.43950939250559035  1.0000
  Eu  Eu5       1.0  0.9849379535939077  0.17028583448636217  0.2956934403602513  1.0000
  Eu  Eu6       1.0  0.908102109275648  0.7554958485017454  0.7326488752006721  1.0000
  Eu  Eu7       1.0  0.08216661915413132  0.866235048079234  0.20028866984924495  1.0000
  Eu  Eu8       1.0  0.7646251965830009  0.9625367382595426  0.680878609809526  1.0000
  Eu  Eu9       1.0  0.8535947091942638  0.8096714112156262  0.5064159751733829  1.0000
  Eu  Eu10      1.0  0.9867892550476188  0.029749477963749146  0.0011751113309747523  1.0000
  Cd  Cd1       1.0  0.3806721923656744  0.12762092052624735  0.35125190554958463  1.0000
  Cd  Cd2       1.0  0.28314514690540066  0.43766194543050013  0.5250561508814527  1.0000
  Cd  Cd3       1.0  0.6654705114827263  0.464630870794127  0.06504108637418769  1.0000
  Cd  Cd4       1.0  0.8969084823954068  0.25789722841895646  0.9198091917409553  1.0000
  Sb  Sb1       1.0  0.7416522187045012  0.08075059665820707  0.5157661213962312  1.0000
  Sb  Sb2       1.0  0.8210096334224104  0.5482015144797059  0.4874744808353754  1.0000
  Sb  Sb3       1.0  0.5254146492015073  0.6917357070399947  0.9049711258134274  1.0000
  Sb  Sb4       1.0  0.4886126602030984  0.0689224967218649  0.06024237366586083  1.0000
  Sb  Sb5       1.0  0.4541032390471045  0.42358471383934326  0.33488890082601724  1.0000
  Sb  Sb6       1.0  0.36487004448091176  0.3245149578610726  0.6393440668709383  1.0000
  Sb  Sb7       1.0  0.45987093926485106  0.6247938654096982  0.14655057786066814  1.0000
  Sb  Sb8       1.0  0.4739253765234597  0.3413809858646115  0.8912945271995268  1.0000
  Sb  Sb9       1.0  0.7111130321516164  0.3010703524107391  0.24426320804452997  1.0000
  Sb  Sb10      1.0  0.33442241458462496  0.7339499410372301  0.8096400338859344  1.0000
  O   O1        1.0  0.7329028527179173  0.11435818130639874  0.30671177717745185  1.0000
  O   O2        1.0  0.8998287616307292  0.5251629218521917  0.7251944500082046  1.0000
data_image122
_chemical_formula_structural       Eu10Cd4Sb10O2
_chemical_formula_sum              "Eu10 Cd4 Sb10 O2"
_cell_length_a       11.24426501306804
_cell_length_b       11.24426501306804
_cell_length_c       14.850709
_cell_angle_alpha    90.0
_cell_angle_beta     90.0
_cell_angle_gamma    155.89846091665316

_space_group_name_H-M_alt    "P 1"
_space_group_IT_number       1

loop_
  _space_group_symop_operation_xyz
  'x, y, z'

loop_
  _atom_site_type_symbol
  _atom_site_label
  _atom_site_symmetry_multiplicity
  _atom_site_fract_x
  _atom_site_fract_y
  _atom_site_fract_z
  _atom_site_occupancy
  Eu  Eu1       1.0  0.9208021611160828  0.551274376498682  0.9405429087790054  1.0000
  Eu  Eu2       1.0  0.22532877043595617  0.6405199677271368  0.20160110010374405  1.0000
  Eu  Eu3       1.0  0.6123690189092874  0.1769880563616808  0.6523982798747441  1.0000
  Eu  Eu4       1.0  0.15961271307128583  0.6164150157758458  0.41193424743406615  1.0000
  Eu  Eu5       1.0  0.8959820377216052  0.09646825986088187  0.2800989588054656  1.0000
  Eu  Eu6       1.0  0.8679541604619311  0.6936324159260198  0.7341182901843486  1.0000
  Eu  Eu7       1.0  0.16424571363496987  0.9547995105271222  0.18591268375786715  1.0000
  Eu  Eu8       1.0  0.7887390910452553  0.9652492635588691  0.6849307441123371  1.0000
  Eu  Eu9       1.0  0.9029477828862801  0.9101521696380428  0.49291085970719234  1.0000
  Eu  Eu10      1.0  0.0879522745199598  0.11827405673757292  0.003200859584061297  1.0000
  Cd  Cd1       1.0  0.3912053113345772  0.14357889045786182  0.38998739611282673  1.0000
  Cd  Cd2       1.0  0.2050511958316951  0.42543911401238194  0.5317369402698084  1.0000
  Cd  Cd3       1.0  0.6857551198317046  0.5370792519586367  0.06145800056147462  1.0000
  Cd  Cd4       1.0  0.9193082824423193  0.2331655631099614  0.9447726954576879  1.0000
  Sb  Sb1       1.0  0.6724580606903137  0.013243881003112605  0.5336141151984896  1.0000
  Sb  Sb2       1.0  0.9269594220679455  0.6394036400195395  0.5105013690084103  1.0000
  Sb  Sb3       1.0  0.5466310515003201  0.6802412899758695  0.8738499575089544  1.0000
  Sb  Sb4       1.0  0.44894038409221265  0.017863868865299004  0.03826579553987908  1.0000
  Sb  Sb5       1.0  0.5092311918532113  0.5127192613251407  0.32289920103890785  1.0000
  Sb  Sb6       1.0  0.3643035688629577  0.3226470295157713  0.6184871906827021  1.0000
  Sb  Sb7       1.0  0.425449980802615  0.5537550191049546  0.13040517779240918  1.0000
  Sb  Sb8       1.0  0.38734158438955396  0.273795536839793  0.8730104542798994  1.0000
  Sb  Sb9       1.0  0.7242589928943995  0.3446734045533982  0.2438823904762949  1.0000
  Sb  Sb10      1.0  0.2739682730694271  0.6732318909552095  0.7990708666573538  1.0000
  O   O1        1.0  0.5265655783987803  0.8752108680724997  0.3068721207335659  1.0000
  O   O2        1.0  0.6993425132456059  0.33607233476236137  0.7770618464363402  1.0000
data_image123
_chemical_formula_structural       Eu10Cd4Sb10O2
_chemical_formula_sum              "Eu10 Cd4 Sb10 O2"
_cell_length_a       11.24426501306804
_cell_length_b       11.24426501306804
_cell_length_c       14.850709
_cell_angle_alpha    90.0
_cell_angle_beta     90.0
_cell_angle_gamma    155.89846091665316

_space_group_name_H-M_alt    "P 1"
_space_group_IT_number       1

loop_
  _space_group_symop_operation_xyz
  'x, y, z'

loop_
  _atom_site_type_symbol
  _atom_site_label
  _atom_site_symmetry_multiplicity
  _atom_site_fract_x
  _atom_site_fract_y
  _atom_site_fract_z
  _atom_site_occupancy
  Eu  Eu1       1.0  0.9834556236779831  0.6153344121746628  0.9322210938593839  1.0000
  Eu  Eu2       1.0  0.12260761163431287  0.5300527946039585  0.17808378402992853  1.0000
  Eu  Eu3       1.0  0.6291942286286859  0.19329227601173152  0.6751185445203931  1.0000
  Eu  Eu4       1.0  0.16539267654139708  0.6258088203913914  0.3835363756855716  1.0000
  Eu  Eu5       1.0  0.8442058094595358  0.05703995909262881  0.28107008886407714  1.0000
  Eu  Eu6       1.0  0.9577522223939028  0.7442927034976163  0.7438859432706151  1.0000
  Eu  Eu7       1.0  0.1946762904339509  0.008911068903360464  0.17841061244883302  1.0000
  Eu  Eu8       1.0  0.8190356427537964  0.9941960673897614  0.7089261010586247  1.0000
  Eu  Eu9       1.0  0.9484773285687154  0.9670076048948975  0.4623642221642487  1.0000
  Eu  Eu10      1.0  0.05369177963085703  0.09488820137661268  0.003809353061041077  1.0000
  Cd  Cd1       1.0  0.3998417960723738  0.19212484942738317  0.4378320445753694  1.0000
  Cd  Cd2       1.0  0.26724852096437984  0.48907034637404456  0.5138412010910535  1.0000
  Cd  Cd3       1.0  0.6959039805469813  0.5739018172759318  0.04458722769186505  1.0000
  Cd  Cd4       1.0  0.8651903182106739  0.19050370438955588  0.9952521786834755  1.0000
  Sb  Sb1       1.0  0.6630252666506294  0.9946913735353222  0.5140684153785259  1.0000
  Sb  Sb2       1.0  0.9277183547922391  0.6373739087512109  0.5326542377696751  1.0000
  Sb  Sb3       1.0  0.5119943610232678  0.6162542950300229  0.855571463030482  1.0000
  Sb  Sb4       1.0  0.5129052023932654  0.05166748868056392  0.05286738307085348  1.0000
  Sb  Sb5       1.0  0.5047614179282253  0.5098597610687617  0.29010281708013896  1.0000
  Sb  Sb6       1.0  0.4047533000457934  0.3628969172025989  0.6402623481181209  1.0000
  Sb  Sb7       1.0  0.47516867023490816  0.6162405573360614  0.12628821767860446  1.0000
  Sb  Sb8       1.0  0.3318067367787166  0.19955451114409342  0.8487634304722906  1.0000
  Sb  Sb9       1.0  0.6619606498031945  0.29502024664355275  0.24598038008947046  1.0000
  Sb  Sb10      1.0  0.19111172143709654  0.5667170695627246  0.8277713506403409  1.0000
  O   O1        1.0  0.17654639705881522  0.4871369381168623  0.31024249651802177  1.0000
  O   O2        1.0  0.7349012960918698  0.36915403594496915  0.7926930125426391  1.0000
data_image124
_chemical_formula_structural       Eu10Cd4Sb10O2
_chemical_formula_sum              "Eu10 Cd4 Sb10 O2"
_cell_length_a       11.24426501306804
_cell_length_b       11.24426501306804
_cell_length_c       14.850709
_cell_angle_alpha    90.0
_cell_angle_beta     90.0
_cell_angle_gamma    155.89846091665316

_space_group_name_H-M_alt    "P 1"
_space_group_IT_number       1

loop_
  _space_group_symop_operation_xyz
  'x, y, z'

loop_
  _atom_site_type_symbol
  _atom_site_label
  _atom_site_symmetry_multiplicity
  _atom_site_fract_x
  _atom_site_fract_y
  _atom_site_fract_z
  _atom_site_occupancy
  Eu  Eu1       1.0  0.03830826125798459  0.643219053678091  0.9269618201077378  1.0000
  Eu  Eu2       1.0  0.10850693700972791  0.502704145455087  0.15305648621343593  1.0000
  Eu  Eu3       1.0  0.5634619263934003  0.0958932885120661  0.6683475271685771  1.0000
  Eu  Eu4       1.0  0.202610258419858  0.7032438146227777  0.3909434763409079  1.0000
  Eu  Eu5       1.0  0.7716458970817769  0.00236641713937592  0.2812787821563352  1.0000
  Eu  Eu6       1.0  0.9466478325257139  0.7239627256483308  0.7164045467125917  1.0000
  Eu  Eu7       1.0  0.07382728567979238  0.9286026698853571  0.21838714195698364  1.0000
  Eu  Eu8       1.0  0.9390336897713167  0.13956735774664542  0.71309725007302  1.0000
  Eu  Eu9       1.0  0.9409463576320446  0.9538293503028926  0.44332413176746427  1.0000
  Eu  Eu10      1.0  0.9609646804206019  0.05646850916052442  0.9987276561282095  1.0000
  Cd  Cd1       1.0  0.4861055473202565  0.28126576275925386  0.44834902261249876  1.0000
  Cd  Cd2       1.0  0.37480484680454396  0.5330805794587553  0.5099145311488874  1.0000
  Cd  Cd3       1.0  0.6407065005044794  0.5164174895836757  0.04188865846555939  1.0000
  Cd  Cd4       1.0  0.808862228020572  0.12672888914291436  0.9689634225946331  1.0000
  Sb  Sb1       1.0  0.7674014133954629  0.11236089780481005  0.5139426673866252  1.0000
  Sb  Sb2       1.0  0.9113797796848716  0.5997121431162247  0.5500378066801617  1.0000
  Sb  Sb3       1.0  0.47058879126542497  0.5551630210130837  0.8765126299231831  1.0000
  Sb  Sb4       1.0  0.6096140319835274  0.15863946103718973  0.07491562400082863  1.0000
  Sb  Sb5       1.0  0.5036097763932383  0.4914815630758472  0.29062869579302564  1.0000
  Sb  Sb6       1.0  0.40857412783353403  0.3639066704175928  0.6655503690923601  1.0000
  Sb  Sb7       1.0  0.46484184806277296  0.6139316985204776  0.10727950472229365  1.0000
  Sb  Sb8       1.0  0.3804279967732507  0.23816331429628432  0.8310083156534886  1.0000
  Sb  Sb9       1.0  0.6172048828036996  0.27222216206677513  0.2627072120604482  1.0000
  Sb  Sb10      1.0  0.15629804387173715  0.49928701406330267  0.8332439801600536  1.0000
  O   O1        1.0  0.3003463701948458  0.6715716239183109  0.2855931383553006  1.0000
  O   O2        1.0  0.8932338649268627  0.47637270446731433  0.7919907225530849  1.0000
data_image125
_chemical_formula_structural       Eu10Cd4Sb10O2
_chemical_formula_sum              "Eu10 Cd4 Sb10 O2"
_cell_length_a       11.24426501306804
_cell_length_b       11.24426501306804
_cell_length_c       14.850709
_cell_angle_alpha    90.0
_cell_angle_beta     90.0
_cell_angle_gamma    155.89846091665316

_space_group_name_H-M_alt    "P 1"
_space_group_IT_number       1

loop_
  _space_group_symop_operation_xyz
  'x, y, z'

loop_
  _atom_site_type_symbol
  _atom_site_label
  _atom_site_symmetry_multiplicity
  _atom_site_fract_x
  _atom_site_fract_y
  _atom_site_fract_z
  _atom_site_occupancy
  Eu  Eu1       1.0  0.07155318544478795  0.6655008042092297  0.9237968583085445  1.0000
  Eu  Eu2       1.0  0.13466737050501126  0.5345674749542125  0.12788043745954708  1.0000
  Eu  Eu3       1.0  0.5752326637929559  0.052492543880192026  0.6980615420565376  1.0000
  Eu  Eu4       1.0  0.1523740269503462  0.6484775884122599  0.3654582920724093  1.0000
  Eu  Eu5       1.0  0.6616530862391172  0.9399491085856885  0.28854614459010436  1.0000
  Eu  Eu6       1.0  0.9793679675556757  0.7851358043291162  0.7176553812181716  1.0000
  Eu  Eu7       1.0  0.9770898506041523  0.8301216383125485  0.24435080700840905  1.0000
  Eu  Eu8       1.0  0.994641850982849  0.17012397103696153  0.6667102112644767  1.0000
  Eu  Eu9       1.0  0.99641877196714  0.9965760124640548  0.44603992144816423  1.0000
  Eu  Eu10      1.0  0.007163409605819941  0.08890812653005532  0.010441526635443751  1.0000
  Cd  Cd1       1.0  0.563512162954357  0.3221801536218369  0.43499227946442154  1.0000
  Cd  Cd2       1.0  0.3465279135720371  0.4838261200483049  0.5104413523248466  1.0000
  Cd  Cd3       1.0  0.634089343394679  0.5242124258454779  0.05483043147376435  1.0000
  Cd  Cd4       1.0  0.6242912523024141  0.008131714802978918  0.9078758558267036  1.0000
  Sb  Sb1       1.0  0.8730588680035614  0.22047930452440107  0.5198243920201356  1.0000
  Sb  Sb2       1.0  0.0427591975377385  0.6677465067125866  0.538868457493112  1.0000
  Sb  Sb3       1.0  0.4418416951275974  0.5376645107863971  0.8583142140169415  1.0000
  Sb  Sb4       1.0  0.5125084387416012  0.10539897413839405  0.11960894565788527  1.0000
  Sb  Sb5       1.0  0.4054878552280904  0.44118477695372554  0.31866787944571506  1.0000
  Sb  Sb6       1.0  0.4119721667349901  0.36655548396241244  0.6408698619956475  1.0000
  Sb  Sb7       1.0  0.45732470134814074  0.5980580129120008  0.1265436110553848  1.0000
  Sb  Sb8       1.0  0.46947480594700636  0.32355610506813787  0.8673790778965259  1.0000
  Sb  Sb9       1.0  0.6660326286880407  0.3219133826247634  0.27518786062172873  1.0000
  Sb  Sb10      1.0  0.16295081112462034  0.5034899281121058  0.8276026506942226  1.0000
  O   O1        1.0  0.0990697937532088  0.46886843505727127  0.2711588476236135  1.0000
  O   O2        1.0  0.873021888320591  0.4848095707808567  0.7717281430323831  1.0000
data_image126
_chemical_formula_structural       Eu10Cd4Sb10O2
_chemical_formula_sum              "Eu10 Cd4 Sb10 O2"
_cell_length_a       11.24426501306804
_cell_length_b       11.24426501306804
_cell_length_c       14.850709
_cell_angle_alpha    90.0
_cell_angle_beta     90.0
_cell_angle_gamma    155.89846091665316

_space_group_name_H-M_alt    "P 1"
_space_group_IT_number       1

loop_
  _space_group_symop_operation_xyz
  'x, y, z'

loop_
  _atom_site_type_symbol
  _atom_site_label
  _atom_site_symmetry_multiplicity
  _atom_site_fract_x
  _atom_site_fract_y
  _atom_site_fract_z
  _atom_site_occupancy
  Eu  Eu1       1.0  0.06638148508483654  0.6880039340060459  0.9060610835351871  1.0000
  Eu  Eu2       1.0  0.02743430771729938  0.4408549528508255  0.1124726535063277  1.0000
  Eu  Eu3       1.0  0.5815778159247298  0.07246695082345983  0.7177132686758739  1.0000
  Eu  Eu4       1.0  0.2175881218129204  0.6949104824815762  0.36788323267994294  1.0000
  Eu  Eu5       1.0  0.6430558064170283  0.920861483979141  0.3161695930589636  1.0000
  Eu  Eu6       1.0  0.025147534668156193  0.8365590235382628  0.7140176957840025  1.0000
  Eu  Eu7       1.0  0.036775448194272045  0.884815371786609  0.2304277990795307  1.0000
  Eu  Eu8       1.0  0.9330751486888667  0.08700650737775077  0.6682521277324017  1.0000
  Eu  Eu9       1.0  0.9910369224155156  0.9588645372237145  0.4608643556327286  1.0000
  Eu  Eu10      1.0  0.010349472265633543  0.10147726567878014  0.0014297592038332095  1.0000
  Cd  Cd1       1.0  0.5813772780817906  0.34244395238635134  0.4910532818132629  1.0000
  Cd  Cd2       1.0  0.4631587020552493  0.6283352212294412  0.49782054462136044  1.0000
  Cd  Cd3       1.0  0.530168917678914  0.37370239220211865  0.07018440815592941  1.0000
  Cd  Cd4       1.0  0.5940148715710424  0.9585834332035591  0.9227540175869897  1.0000
  Sb  Sb1       1.0  0.8459132348637673  0.2181091807462286  0.5140145497685278  1.0000
  Sb  Sb2       1.0  0.10469019318468373  0.7047558060288955  0.541200727990749  1.0000
  Sb  Sb3       1.0  0.5456227048125237  0.6416232057284871  0.8494352182883432  1.0000
  Sb  Sb4       1.0  0.35323934904389503  0.9997092373898467  0.09524016720255846  1.0000
  Sb  Sb5       1.0  0.42274236841518037  0.4702071248706817  0.31563316767554606  1.0000
  Sb  Sb6       1.0  0.5311080854606391  0.453528011872342  0.605740319978985  1.0000
  Sb  Sb7       1.0  0.5387882805094607  0.6567350500530311  0.14287136555444946  1.0000
  Sb  Sb8       1.0  0.4451274132573336  0.3132060914890563  0.8826156789767533  1.0000
  Sb  Sb9       1.0  0.6024977083636539  0.2421160526887595  0.2795001828596576  1.0000
  Sb  Sb10      1.0  0.08889591192343421  0.4591141243863521  0.794886456187797  1.0000
  O   O1        1.0  0.08252647910473548  0.4586645188659265  0.2591715436675903  1.0000
  O   O2        1.0  0.797555075693302  0.4449279458982194  0.7634430443058553  1.0000
data_image127
_chemical_formula_structural       Eu10Cd4Sb10O2
_chemical_formula_sum              "Eu10 Cd4 Sb10 O2"
_cell_length_a       11.24426501306804
_cell_length_b       11.24426501306804
_cell_length_c       14.850709
_cell_angle_alpha    90.0
_cell_angle_beta     90.0
_cell_angle_gamma    155.89846091665316

_space_group_name_H-M_alt    "P 1"
_space_group_IT_number       1

loop_
  _space_group_symop_operation_xyz
  'x, y, z'

loop_
  _atom_site_type_symbol
  _atom_site_label
  _atom_site_symmetry_multiplicity
  _atom_site_fract_x
  _atom_site_fract_y
  _atom_site_fract_z
  _atom_site_occupancy
  Eu  Eu1       1.0  0.9825967224968862  0.6404487031587416  0.8991841361370675  1.0000
  Eu  Eu2       1.0  0.9627446685706651  0.36047811367229504  0.11447498202744477  1.0000
  Eu  Eu3       1.0  0.5747882829247727  0.11143604234567396  0.6821084532176145  1.0000
  Eu  Eu4       1.0  0.1523692565168068  0.6829920615405564  0.35143508092741943  1.0000
  Eu  Eu5       1.0  0.6706578415450429  0.9478309799448001  0.3077909206233597  1.0000
  Eu  Eu6       1.0  0.11076421586283751  0.9312994940185741  0.7263869504594552  1.0000
  Eu  Eu7       1.0  0.9998544287528439  0.8716794201419781  0.24119521321873066  1.0000
  Eu  Eu8       1.0  0.8509835778435677  0.9769780513152594  0.679838376763546  1.0000
  Eu  Eu9       1.0  0.0015297682129890077  0.9294953779015092  0.4538237661400668  1.0000
  Eu  Eu10      1.0  0.08517424301978557  0.17029759248881293  0.9835572444097067  1.0000
  Cd  Cd1       1.0  0.6214333646397636  0.3061004296525333  0.4880613801364089  1.0000
  Cd  Cd2       1.0  0.47289099269712964  0.6503336433953539  0.5009371901709704  1.0000
  Cd  Cd3       1.0  0.6136351657073709  0.4903533331418944  0.08123057290500184  1.0000
  Cd  Cd4       1.0  0.5358500633284594  0.8887211413052435  0.9710013402384023  1.0000
  Sb  Sb1       1.0  0.899189361967121  0.2247909058158474  0.5103893048557926  1.0000
  Sb  Sb2       1.0  0.14366254087877317  0.754531223943134  0.560726623500948  1.0000
  Sb  Sb3       1.0  0.5660295530645847  0.6812558120145935  0.8431609272893564  1.0000
  Sb  Sb4       1.0  0.32087254794037534  0.9537017367668481  0.09238238843809854  1.0000
  Sb  Sb5       1.0  0.4035107641317287  0.4264182997417935  0.322983630677942  1.0000
  Sb  Sb6       1.0  0.4708963916536715  0.42649457512190675  0.6033223872989404  1.0000
  Sb  Sb7       1.0  0.551336157221508  0.6360337993888335  0.15908023351744757  1.0000
  Sb  Sb8       1.0  0.4059942177718511  0.2571398882830282  0.8774426442300651  1.0000
  Sb  Sb9       1.0  0.5838789921300033  0.23351427602633987  0.2634834506977122  1.0000
  Sb  Sb10      1.0  0.22805821969284462  0.6032644562177166  0.8016431507885258  1.0000
  O   O1        1.0  0.1255461968247429  0.4871680268481831  0.2737960187317097  1.0000
  O   O2        1.0  0.8477428153146452  0.5028293277249454  0.7576754088473415  1.0000
data_image128
_chemical_formula_structural       Eu10Cd4Sb10O2
_chemical_formula_sum              "Eu10 Cd4 Sb10 O2"
_cell_length_a       11.24426501306804
_cell_length_b       11.24426501306804
_cell_length_c       14.850709
_cell_angle_alpha    90.0
_cell_angle_beta     90.0
_cell_angle_gamma    155.89846091665316

_space_group_name_H-M_alt    "P 1"
_space_group_IT_number       1

loop_
  _space_group_symop_operation_xyz
  'x, y, z'

loop_
  _atom_site_type_symbol
  _atom_site_label
  _atom_site_symmetry_multiplicity
  _atom_site_fract_x
  _atom_site_fract_y
  _atom_site_fract_z
  _atom_site_occupancy
  Eu  Eu1       1.0  0.9383277580083855  0.6004536268386588  0.8994406778579876  1.0000
  Eu  Eu2       1.0  0.05041690658927448  0.4486467050898701  0.1387605416041901  1.0000
  Eu  Eu3       1.0  0.6802910347910701  0.19588240944926993  0.6819243831356865  1.0000
  Eu  Eu4       1.0  0.07420938583534621  0.6094236554045004  0.3491797038936664  1.0000
  Eu  Eu5       1.0  0.7038513360147931  0.9891042268590006  0.3033849937231683  1.0000
  Eu  Eu6       1.0  0.12675156848403207  0.9316746107866871  0.7163195559770208  1.0000
  Eu  Eu7       1.0  0.005437153584090054  0.8865686029410095  0.25164210073480053  1.0000
  Eu  Eu8       1.0  0.9095087872755784  0.029571436480042554  0.6873869198528111  1.0000
  Eu  Eu9       1.0  0.9416190597318697  0.8235889454347097  0.4612346524652704  1.0000
  Eu  Eu10      1.0  0.13119194986326663  0.209661371674212  0.9875162091946793  1.0000
  Cd  Cd1       1.0  0.5693071205156182  0.23193565390859477  0.458458146544932  1.0000
  Cd  Cd2       1.0  0.4847509114845049  0.6579564571183751  0.48368601934157057  1.0000
  Cd  Cd3       1.0  0.7242024051614634  0.5635377300912653  0.057680439688239424  1.0000
  Cd  Cd4       1.0  0.4388332388007685  0.7873408238467803  0.9747801534837607  1.0000
  Sb  Sb1       1.0  0.9825262301337729  0.2875485101465434  0.5392873169736585  1.0000
  Sb  Sb2       1.0  0.10641861476816077  0.7219361108317939  0.5478181479593862  1.0000
  Sb  Sb3       1.0  0.5011622126652024  0.6499665981378213  0.8419616339721783  1.0000
  Sb  Sb4       1.0  0.257439490934615  0.8819407222374354  0.09395587102329195  1.0000
  Sb  Sb5       1.0  0.3536061974389285  0.3780915841663515  0.3351073723726653  1.0000
  Sb  Sb6       1.0  0.467312548778638  0.4484438088355319  0.5915358787569609  1.0000
  Sb  Sb7       1.0  0.5940014912410198  0.72416819096387  0.14282248235301523  1.0000
  Sb  Sb8       1.0  0.39592124075500007  0.23710304801657156  0.9075933663445646  1.0000
  Sb  Sb9       1.0  0.5641930878821024  0.26185548385362295  0.23936905984865312  1.0000
  Sb  Sb10      1.0  0.18408835238819768  0.576022867739075  0.8064532395210058  1.0000
  O   O1        1.0  0.2012975298197975  0.5560608584820932  0.2842418743417985  1.0000
  O   O2        1.0  0.6167573162776924  0.3710469765161861  0.7734290900198707  1.0000
data_image129
_chemical_formula_structural       Eu10Cd4Sb10O2
_chemical_formula_sum              "Eu10 Cd4 Sb10 O2"
_cell_length_a       11.24426501306804
_cell_length_b       11.24426501306804
_cell_length_c       14.850709
_cell_angle_alpha    90.0
_cell_angle_beta     90.0
_cell_angle_gamma    155.89846091665316

_space_group_name_H-M_alt    "P 1"
_space_group_IT_number       1

loop_
  _space_group_symop_operation_xyz
  'x, y, z'

loop_
  _atom_site_type_symbol
  _atom_site_label
  _atom_site_symmetry_multiplicity
  _atom_site_fract_x
  _atom_site_fract_y
  _atom_site_fract_z
  _atom_site_occupancy
  Eu  Eu1       1.0  0.9267106156798637  0.5534159397431564  0.881644785139485  1.0000
  Eu  Eu2       1.0  0.07603975075661937  0.4326879471033913  0.13160346966498637  1.0000
  Eu  Eu3       1.0  0.661826255045253  0.1666523925832072  0.6726744233912723  1.0000
  Eu  Eu4       1.0  0.14329969571321724  0.6644632281453872  0.3480897589709786  1.0000
  Eu  Eu5       1.0  0.8280460575214009  0.08972848307832854  0.3086884440460725  1.0000
  Eu  Eu6       1.0  0.1691803627275551  0.9888798029362624  0.7139619048652686  1.0000
  Eu  Eu7       1.0  0.9621119917492178  0.8538378005294829  0.23979747946981989  1.0000
  Eu  Eu8       1.0  0.8794036471779808  0.011287989062798797  0.6974100094551094  1.0000
  Eu  Eu9       1.0  0.9278516761066192  0.7964909039169759  0.4754560986896854  1.0000
  Eu  Eu10      1.0  0.026578410560515315  0.13710913185611803  0.98404899780721  1.0000
  Cd  Cd1       1.0  0.5299718465619508  0.20969665171826748  0.436658679847834  1.0000
  Cd  Cd2       1.0  0.5207575799201629  0.7223497928563428  0.4724254885143277  1.0000
  Cd  Cd3       1.0  0.8962593325753052  0.7157679968099644  0.045525052659035566  1.0000
  Cd  Cd4       1.0  0.48608904994177793  0.8654886595523774  0.9657723637158836  1.0000
  Sb  Sb1       1.0  0.9225761206666127  0.2127135208729112  0.5514562014513742  1.0000
  Sb  Sb2       1.0  0.12099662801405843  0.7465641451577967  0.5536086006038194  1.0000
  Sb  Sb3       1.0  0.4351327276189041  0.6116474914583612  0.8464759800041  1.0000
  Sb  Sb4       1.0  0.1900890094764397  0.796939612261446  0.09364134000589153  1.0000
  Sb  Sb5       1.0  0.3438538369919942  0.3755887366217342  0.3661005387367648  1.0000
  Sb  Sb6       1.0  0.44253409175182257  0.40804012910926657  0.6065161845249765  1.0000
  Sb  Sb7       1.0  0.6113503801623111  0.7513203639452487  0.13313959730573818  1.0000
  Sb  Sb8       1.0  0.32638980600993783  0.1684902564429379  0.9432023365620454  1.0000
  Sb  Sb9       1.0  0.5674305464584792  0.26333516705080456  0.24436929720820144  1.0000
  Sb  Sb10      1.0  0.18513626467970878  0.6069526897889369  0.789296831496514  1.0000
  O   O1        1.0  0.16495599486069637  0.5251914825424362  0.2845369660045829  1.0000
  O   O2        1.0  0.75663610847437  0.49478886453037957  0.7561146331993067  1.0000
data_image130
_chemical_formula_structural       Eu10Cd4Sb10O2
_chemical_formula_sum              "Eu10 Cd4 Sb10 O2"
_cell_length_a       11.24426501306804
_cell_length_b       11.24426501306804
_cell_length_c       14.850709
_cell_angle_alpha    90.0
_cell_angle_beta     90.0
_cell_angle_gamma    155.89846091665316

_space_group_name_H-M_alt    "P 1"
_space_group_IT_number       1

loop_
  _space_group_symop_operation_xyz
  'x, y, z'

loop_
  _atom_site_type_symbol
  _atom_site_label
  _atom_site_symmetry_multiplicity
  _atom_site_fract_x
  _atom_site_fract_y
  _atom_site_fract_z
  _atom_site_occupancy
  Eu  Eu1       1.0  0.8632655208887754  0.5064909789912267  0.8819469821205201  1.0000
  Eu  Eu2       1.0  0.054154336828940434  0.40271255328463207  0.1486432520509902  1.0000
  Eu  Eu3       1.0  0.6976276157483174  0.2271690432217646  0.6525130068337301  1.0000
  Eu  Eu4       1.0  0.27570141537404896  0.7815750870723386  0.33612890319907834  1.0000
  Eu  Eu5       1.0  0.8952910651071062  0.12385690473179096  0.30312300762027744  1.0000
  Eu  Eu6       1.0  0.16350667457510057  0.9415256179705552  0.7329242925806032  1.0000
  Eu  Eu7       1.0  0.9620760271851446  0.8693016854330551  0.23090754159522003  1.0000
  Eu  Eu8       1.0  0.9136569416738163  0.0487053847706452  0.7140262462442288  1.0000
  Eu  Eu9       1.0  0.9081997214294767  0.7930196987541697  0.47987506281588954  1.0000
  Eu  Eu10      1.0  0.8934181594736763  0.05629930629357662  0.9664428591723367  1.0000
  Cd  Cd1       1.0  0.6108794689813295  0.2744565803155668  0.4461461253414211  1.0000
  Cd  Cd2       1.0  0.42730370280084545  0.6224158120736618  0.49430526148511106  1.0000
  Cd  Cd3       1.0  0.8433480348092018  0.6727128438763166  0.060446940176014805  1.0000
  Cd  Cd4       1.0  0.5150679140991491  0.9346643822023577  0.9522883595926533  1.0000
  Sb  Sb1       1.0  0.8872556052784613  0.20152565236652437  0.5146626861245263  1.0000
  Sb  Sb2       1.0  0.14714545505361437  0.750573653966085  0.5558308726488781  1.0000
  Sb  Sb3       1.0  0.334089035847724  0.5263661391400796  0.8407559307928665  1.0000
  Sb  Sb4       1.0  0.19215951871574646  0.7722242708195701  0.06779447373845437  1.0000
  Sb  Sb5       1.0  0.4540902733875037  0.4417389133854903  0.3659504510158339  1.0000
  Sb  Sb6       1.0  0.3552053762412759  0.33186901432425825  0.6019194927904976  1.0000
  Sb  Sb7       1.0  0.6159336580549084  0.7580899677025315  0.13975334633792935  1.0000
  Sb  Sb8       1.0  0.3734974723412977  0.19534634511067372  0.974180067581251  1.0000
  Sb  Sb9       1.0  0.555655022260073  0.24022817219685164  0.2676497783656047  1.0000
  Sb  Sb10      1.0  0.21419281244682067  0.6344232037869028  0.7730957178407908  1.0000
  O   O1        1.0  0.3534864499853055  0.6890442152227767  0.26384072180028145  1.0000
  O   O2        1.0  0.699713600327727  0.5445920603865513  0.8167056594176919  1.0000
data_image131
_chemical_formula_structural       Eu10Cd4Sb10O2
_chemical_formula_sum              "Eu10 Cd4 Sb10 O2"
_cell_length_a       11.24426501306804
_cell_length_b       11.24426501306804
_cell_length_c       14.850709
_cell_angle_alpha    90.0
_cell_angle_beta     90.0
_cell_angle_gamma    155.89846091665316

_space_group_name_H-M_alt    "P 1"
_space_group_IT_number       1

loop_
  _space_group_symop_operation_xyz
  'x, y, z'

loop_
  _atom_site_type_symbol
  _atom_site_label
  _atom_site_symmetry_multiplicity
  _atom_site_fract_x
  _atom_site_fract_y
  _atom_site_fract_z
  _atom_site_occupancy
  Eu  Eu1       1.0  0.8164005833712831  0.46126664939951956  0.8957718364085777  1.0000
  Eu  Eu2       1.0  0.028880613313477563  0.3935815927392336  0.15091901195716448  1.0000
  Eu  Eu3       1.0  0.7245239622579019  0.24271538743174922  0.6788118502802718  1.0000
  Eu  Eu4       1.0  0.26832109354752354  0.774203872524125  0.3388375334259831  1.0000
  Eu  Eu5       1.0  0.8770254656512685  0.09103993243077745  0.291872604520695  1.0000
  Eu  Eu6       1.0  0.18146615186336087  0.9467358507213252  0.7408915649732541  1.0000
  Eu  Eu7       1.0  0.06998254087828558  0.9945210183187928  0.22842504294792423  1.0000
  Eu  Eu8       1.0  0.7852749890125771  0.9405262768823694  0.716524909128951  1.0000
  Eu  Eu9       1.0  0.927559423707023  0.830763191063564  0.4937310604751039  1.0000
  Eu  Eu10      1.0  0.8727519127430821  0.017108317876134472  0.9643060708974587  1.0000
  Cd  Cd1       1.0  0.5903243880426051  0.23235043458278726  0.44364765084999913  1.0000
  Cd  Cd2       1.0  0.48520815794645433  0.6621026257813915  0.5079149709034296  1.0000
  Cd  Cd3       1.0  0.7306426795806666  0.5578857043273334  0.07281198421515231  1.0000
  Cd  Cd4       1.0  0.5245808152951169  0.9512232960263871  0.9479318697142726  1.0000
  Sb  Sb1       1.0  0.820758196935065  0.17475046985082976  0.5079842269913701  1.0000
  Sb  Sb2       1.0  0.14491586964899544  0.7478726055722844  0.5391816223186129  1.0000
  Sb  Sb3       1.0  0.3812444552082741  0.5849030220275694  0.83778946490584  1.0000
  Sb  Sb4       1.0  0.2996155949157179  0.8690038832194433  0.07627387208846481  1.0000
  Sb  Sb5       1.0  0.504987965356541  0.46637636561243423  0.3429692481653899  1.0000
  Sb  Sb6       1.0  0.3226244900111149  0.335567644564402  0.6047100904671184  1.0000
  Sb  Sb7       1.0  0.6007773597495722  0.6873483364773054  0.139836946549133  1.0000
  Sb  Sb8       1.0  0.22169695070630296  0.05314633391705907  0.9466187792519093  1.0000
  Sb  Sb9       1.0  0.6853976489133714  0.3937808781580857  0.2547166966950903  1.0000
  Sb  Sb10      1.0  0.30025334929289504  0.7234318647422996  0.7736075477870258  1.0000
  O   O1        1.0  0.30290301486238447  0.6297441799082486  0.29368206058985896  1.0000
  O   O2        1.0  0.7361586082944521  0.44071119240513307  0.739073214569091  1.0000
data_image132
_chemical_formula_structural       Eu10Cd4Sb10O2
_chemical_formula_sum              "Eu10 Cd4 Sb10 O2"
_cell_length_a       11.24426501306804
_cell_length_b       11.24426501306804
_cell_length_c       14.850709
_cell_angle_alpha    90.0
_cell_angle_beta     90.0
_cell_angle_gamma    155.89846091665316

_space_group_name_H-M_alt    "P 1"
_space_group_IT_number       1

loop_
  _space_group_symop_operation_xyz
  'x, y, z'

loop_
  _atom_site_type_symbol
  _atom_site_label
  _atom_site_symmetry_multiplicity
  _atom_site_fract_x
  _atom_site_fract_y
  _atom_site_fract_z
  _atom_site_occupancy
  Eu  Eu1       1.0  0.7692064923324557  0.4160028819292329  0.9135978203063769  1.0000
  Eu  Eu2       1.0  0.10191009013822955  0.48311848820979525  0.14579764141261786  1.0000
  Eu  Eu3       1.0  0.776398663770481  0.2639669934993415  0.6636657070960886  1.0000
  Eu  Eu4       1.0  0.20183527812961455  0.7249855465233249  0.31591130815019963  1.0000
  Eu  Eu5       1.0  0.8476324650395873  0.0481614452878036  0.3196378012872138  1.0000
  Eu  Eu6       1.0  0.25588692533828433  0.04449601337208975  0.7203037970616087  1.0000
  Eu  Eu7       1.0  0.1110106197970567  0.0033795035320594025  0.21082478595195825  1.0000
  Eu  Eu8       1.0  0.7833091728815719  0.9822322864125087  0.6808768577902258  1.0000
  Eu  Eu9       1.0  0.9196462858101009  0.8021245170848712  0.5089199171435732  1.0000
  Eu  Eu10      1.0  0.0011025628693440241  0.11045924913267537  0.9753241438872838  1.0000
  Cd  Cd1       1.0  0.5855956101457965  0.2365806691011404  0.4507871687845317  1.0000
  Cd  Cd2       1.0  0.4480764879258408  0.6567863326203124  0.4956230241713137  1.0000
  Cd  Cd3       1.0  0.5568895345128766  0.388037633507431  0.07643404184343162  1.0000
  Cd  Cd4       1.0  0.5216488162416177  0.9117507587278552  0.9760698583957899  1.0000
  Sb  Sb1       1.0  0.931642134582237  0.2748071328528908  0.48680040212524667  1.0000
  Sb  Sb2       1.0  0.1607490204160601  0.7372375716341503  0.5492259173252332  1.0000
  Sb  Sb3       1.0  0.3261734745198914  0.4985663004001225  0.8412415524863661  1.0000
  Sb  Sb4       1.0  0.3297239545482008  0.9488689070568088  0.09547280560152904  1.0000
  Sb  Sb5       1.0  0.5255038736821673  0.5101718029584722  0.35218846905844564  1.0000
  Sb  Sb6       1.0  0.37844459343714926  0.387101870282261  0.6279547036217816  1.0000
  Sb  Sb7       1.0  0.43663050255115887  0.5117472936588517  0.12473603829150846  1.0000
  Sb  Sb8       1.0  0.20132849283751694  0.07230834598591808  0.9329264967895089  1.0000
  Sb  Sb9       1.0  0.7219158188891369  0.39867891665262467  0.2392226651206981  1.0000
  Sb  Sb10      1.0  0.20531737481330894  0.6668875397843342  0.8079478421814609  1.0000
  O   O1        1.0  0.27551858928596756  0.6034048841253188  0.29927800643630803  1.0000
  O   O2        1.0  0.7126121973165227  0.3829563869667428  0.7165705728075494  1.0000
data_image133
_chemical_formula_structural       Eu10Cd4Sb10O2
_chemical_formula_sum              "Eu10 Cd4 Sb10 O2"
_cell_length_a       11.24426501306804
_cell_length_b       11.24426501306804
_cell_length_c       14.850709
_cell_angle_alpha    90.0
_cell_angle_beta     90.0
_cell_angle_gamma    155.89846091665316

_space_group_name_H-M_alt    "P 1"
_space_group_IT_number       1

loop_
  _space_group_symop_operation_xyz
  'x, y, z'

loop_
  _atom_site_type_symbol
  _atom_site_label
  _atom_site_symmetry_multiplicity
  _atom_site_fract_x
  _atom_site_fract_y
  _atom_site_fract_z
  _atom_site_occupancy
  Eu  Eu1       1.0  0.8314612252768676  0.47318203302077294  0.9001395580835526  1.0000
  Eu  Eu2       1.0  0.181145771001663  0.5579348673317007  0.1567249673571494  1.0000
  Eu  Eu3       1.0  0.7423989455016856  0.2528342777635292  0.6706551575029986  1.0000
  Eu  Eu4       1.0  0.21284016632102867  0.7407521156368833  0.32718579020440847  1.0000
  Eu  Eu5       1.0  0.8669055529539396  0.05453992381436758  0.3154318646543421  1.0000
  Eu  Eu6       1.0  0.2546150085839788  0.027577319183911264  0.6979485528612693  1.0000
  Eu  Eu7       1.0  0.03883433858444568  0.9211142202182095  0.22848734369040086  1.0000
  Eu  Eu8       1.0  0.8276372465171324  0.03312683358302358  0.6959043182530837  1.0000
  Eu  Eu9       1.0  0.852771353614226  0.7173676077916415  0.5018647041565898  1.0000
  Eu  Eu10      1.0  0.9448665722950123  0.04639891214302441  0.01589993290250967  1.0000
  Cd  Cd1       1.0  0.572218360507588  0.251908335712883  0.45126702499646254  1.0000
  Cd  Cd2       1.0  0.5545815634577661  0.7340680802471181  0.49545400617953733  1.0000
  Cd  Cd3       1.0  0.5148855369977151  0.3784870068294223  0.05252108575054024  1.0000
  Cd  Cd4       1.0  0.5596618840065467  0.908612722313502  0.9872511000467575  1.0000
  Sb  Sb1       1.0  0.9314810947944507  0.285777813805032  0.474829822723435  1.0000
  Sb  Sb2       1.0  0.2160766347611175  0.7696759124660218  0.5240592020520397  1.0000
  Sb  Sb3       1.0  0.38406064507518267  0.570806662964109  0.83648345442301  1.0000
  Sb  Sb4       1.0  0.2615568458922383  0.9028768496807441  0.07445158345407776  1.0000
  Sb  Sb5       1.0  0.44642092336067024  0.4604549949171523  0.37440391242341126  1.0000
  Sb  Sb6       1.0  0.35488275903505634  0.386247954014908  0.615356118540905  1.0000
  Sb  Sb7       1.0  0.4783083836731231  0.5603016519940696  0.14047808240456267  1.0000
  Sb  Sb8       1.0  0.16913524983486938  0.012609432762346927  0.8880905623327017  1.0000
  Sb  Sb9       1.0  0.6333760590245194  0.3111085707286618  0.2329081870082172  1.0000
  Sb  Sb10      1.0  0.2781275584974307  0.7315591798805158  0.8383592001763471  1.0000
  O   O1        1.0  0.28872676674884723  0.6313699026656285  0.30791364084613676  1.0000
  O   O2        1.0  0.7119968317888227  0.4291185658577864  0.7126225985640348  1.0000
data_image134
_chemical_formula_structural       Eu10Cd4Sb10O2
_chemical_formula_sum              "Eu10 Cd4 Sb10 O2"
_cell_length_a       11.24426501306804
_cell_length_b       11.24426501306804
_cell_length_c       14.850709
_cell_angle_alpha    90.0
_cell_angle_beta     90.0
_cell_angle_gamma    155.89846091665316

_space_group_name_H-M_alt    "P 1"
_space_group_IT_number       1

loop_
  _space_group_symop_operation_xyz
  'x, y, z'

loop_
  _atom_site_type_symbol
  _atom_site_label
  _atom_site_symmetry_multiplicity
  _atom_site_fract_x
  _atom_site_fract_y
  _atom_site_fract_z
  _atom_site_occupancy
  Eu  Eu1       1.0  0.8081548911041964  0.45497081647504983  0.889833035502784  1.0000
  Eu  Eu2       1.0  0.17309051940923276  0.5481625288280084  0.14274612626357966  1.0000
  Eu  Eu3       1.0  0.716868111963705  0.22938110141063472  0.6592108145781681  1.0000
  Eu  Eu4       1.0  0.2562594968402688  0.7506868942169778  0.33764414924724556  1.0000
  Eu  Eu5       1.0  0.9476682987527875  0.13128693743014486  0.316373112363166  1.0000
  Eu  Eu6       1.0  0.15729005762036116  0.886009400029375  0.6890565494977084  1.0000
  Eu  Eu7       1.0  0.9860083360412837  0.8892867061835265  0.21516120099926084  1.0000
  Eu  Eu8       1.0  0.8347965048564625  0.020041262194592104  0.7131838397478326  1.0000
  Eu  Eu9       1.0  0.8807961808155372  0.7447595937479747  0.4952712564493766  1.0000
  Eu  Eu10      1.0  0.952220849035824  0.05687805733167321  0.007492267952635768  1.0000
  Cd  Cd1       1.0  0.5479634369467329  0.2529896722300653  0.4170857819689091  1.0000
  Cd  Cd2       1.0  0.6019123161480023  0.7928991336782524  0.5181211548014  1.0000
  Cd  Cd3       1.0  0.6706559137413987  0.5337201830521753  0.017975513214853894  1.0000
  Cd  Cd4       1.0  0.647507619478099  0.009629121822916753  0.9795579447933562  1.0000
  Sb  Sb1       1.0  0.9128411158349697  0.28075153616136006  0.5037832723973494  1.0000
  Sb  Sb2       1.0  0.24438790143434078  0.8185210910197254  0.5389493758999501  1.0000
  Sb  Sb3       1.0  0.36094395036039484  0.5716054836103387  0.857516492904472  1.0000
  Sb  Sb4       1.0  0.23456329777508064  0.8802816199738229  0.07685141361018122  1.0000
  Sb  Sb5       1.0  0.3486334258649253  0.29672017866274425  0.3808467146097423  1.0000
  Sb  Sb6       1.0  0.2815254625158862  0.3098943491688784  0.5909848481891176  1.0000
  Sb  Sb7       1.0  0.48603324321863395  0.5939416437158558  0.15996804403907097  1.0000
  Sb  Sb8       1.0  0.10327616518700468  0.9397083495084709  0.916334191673114  1.0000
  Sb  Sb9       1.0  0.6383993937975199  0.3306718377149705  0.24655290270398045  1.0000
  Sb  Sb10      1.0  0.3341674477385208  0.8116642217588795  0.8333219758365746  1.0000
  O   O1        1.0  0.3510052267720954  0.6700688584602041  0.2735600903141913  1.0000
  O   O2        1.0  0.7425346785008754  0.44228234285483725  0.744817126914662  1.0000
data_image135
_chemical_formula_structural       Eu10Cd4Sb10O2
_chemical_formula_sum              "Eu10 Cd4 Sb10 O2"
_cell_length_a       11.24426501306804
_cell_length_b       11.24426501306804
_cell_length_c       14.850709
_cell_angle_alpha    90.0
_cell_angle_beta     90.0
_cell_angle_gamma    155.89846091665316

_space_group_name_H-M_alt    "P 1"
_space_group_IT_number       1

loop_
  _space_group_symop_operation_xyz
  'x, y, z'

loop_
  _atom_site_type_symbol
  _atom_site_label
  _atom_site_symmetry_multiplicity
  _atom_site_fract_x
  _atom_site_fract_y
  _atom_site_fract_z
  _atom_site_occupancy
  Eu  Eu1       1.0  0.7539208994461797  0.3964937197125148  0.9017515003660169  1.0000
  Eu  Eu2       1.0  0.0866669092295621  0.49351108397270177  0.10740140431642306  1.0000
  Eu  Eu3       1.0  0.7729865316760219  0.2730167456356007  0.6560867608804921  1.0000
  Eu  Eu4       1.0  0.2861211392288088  0.7430355629702428  0.320801104640061  1.0000
  Eu  Eu5       1.0  0.9786608936220003  0.19793656472411633  0.30766420448319964  1.0000
  Eu  Eu6       1.0  0.1745533990017375  0.9195906631755328  0.7271090368900676  1.0000
  Eu  Eu7       1.0  0.9248894639339275  0.8402230514887807  0.21200340932633616  1.0000
  Eu  Eu8       1.0  0.836246591914737  0.02582997522752528  0.7437117668841923  1.0000
  Eu  Eu9       1.0  0.8781062620684834  0.7632122546404068  0.5028606529157114  1.0000
  Eu  Eu10      1.0  0.9861407872715398  0.10912648343742713  0.01942789167292626  1.0000
  Cd  Cd1       1.0  0.5139208849480922  0.17860342584500008  0.40333580802737834  1.0000
  Cd  Cd2       1.0  0.5755634239984675  0.7756134985779346  0.533367909800151  1.0000
  Cd  Cd3       1.0  0.6162043869561477  0.4989391770627056  0.03537627300393174  1.0000
  Cd  Cd4       1.0  0.6817757221362131  0.025574017164325502  0.965507975293116  1.0000
  Sb  Sb1       1.0  0.0008948446237364571  0.3382558691544034  0.48920210661021846  1.0000
  Sb  Sb2       1.0  0.13970006908642438  0.7411366793818138  0.5390878077264786  1.0000
  Sb  Sb3       1.0  0.3475456491568565  0.5669520850862253  0.875796008462822  1.0000
  Sb  Sb4       1.0  0.268338896242971  0.9049501617806422  0.09042753311580842  1.0000
  Sb  Sb5       1.0  0.35371505747276294  0.3094200724689383  0.3859629354128828  1.0000
  Sb  Sb6       1.0  0.3318498406593824  0.3597059068736169  0.6017110146525584  1.0000
  Sb  Sb7       1.0  0.40308154930589807  0.5084357527398093  0.14547569597596693  1.0000
  Sb  Sb8       1.0  0.21960923960449033  0.05721554305305301  0.9054501432105792  1.0000
  Sb  Sb9       1.0  0.6439180295858761  0.28748963282532947  0.22116362916779805  1.0000
  Sb  Sb10      1.0  0.32980725748162243  0.7845521740093937  0.8054566737490627  1.0000
  O   O1        1.0  0.5264541459823554  0.7994118957887751  0.2813153166407104  1.0000
  O   O2        1.0  0.742809075781501  0.4123549536934547  0.7318325049194845  1.0000
data_image136
_chemical_formula_structural       Eu10Cd4Sb10O2
_chemical_formula_sum              "Eu10 Cd4 Sb10 O2"
_cell_length_a       11.24426501306804
_cell_length_b       11.24426501306804
_cell_length_c       14.850709
_cell_angle_alpha    90.0
_cell_angle_beta     90.0
_cell_angle_gamma    155.89846091665316

_space_group_name_H-M_alt    "P 1"
_space_group_IT_number       1

loop_
  _space_group_symop_operation_xyz
  'x, y, z'

loop_
  _atom_site_type_symbol
  _atom_site_label
  _atom_site_symmetry_multiplicity
  _atom_site_fract_x
  _atom_site_fract_y
  _atom_site_fract_z
  _atom_site_occupancy
  Eu  Eu1       1.0  0.7775565159081659  0.4154616664187811  0.9087219373643468  1.0000
  Eu  Eu2       1.0  0.03244839323137142  0.42373605569622325  0.08190502718167005  1.0000
  Eu  Eu3       1.0  0.7015450803344747  0.20698766544788058  0.6378761982155317  1.0000
  Eu  Eu4       1.0  0.29158220277761904  0.7656817907971031  0.280658802820496  1.0000
  Eu  Eu5       1.0  0.9564493202184261  0.16481459673224336  0.30264807720824344  1.0000
  Eu  Eu6       1.0  0.18552716443743902  0.9707179354099507  0.7308533755771178  1.0000
  Eu  Eu7       1.0  0.948988659897608  0.8582960920371602  0.23258858966661144  1.0000
  Eu  Eu8       1.0  0.834406408474304  0.053388047199733196  0.7521978394959397  1.0000
  Eu  Eu9       1.0  0.8233310415182538  0.7180784202707391  0.5216430884129671  1.0000
  Eu  Eu10      1.0  0.9751091035345463  0.07749314309546833  0.028839088257342046  1.0000
  Cd  Cd1       1.0  0.5581903170516495  0.20454834710151007  0.41160542044731135  1.0000
  Cd  Cd2       1.0  0.6470060256086073  0.8681231172881922  0.5712604330154731  1.0000
  Cd  Cd3       1.0  0.5569575600103264  0.45200306108680716  0.04977610906892052  1.0000
  Cd  Cd4       1.0  0.6959632064329588  0.059807211825744666  0.9346613447325444  1.0000
  Sb  Sb1       1.0  0.098956831538481  0.4121272918732528  0.4903961194220774  1.0000
  Sb  Sb2       1.0  0.07463047605870152  0.6730020778842394  0.493322521773517  1.0000
  Sb  Sb3       1.0  0.298536118913288  0.48168918689823004  0.8884895148906514  1.0000
  Sb  Sb4       1.0  0.23775244177122168  0.8726237769373659  0.06117511848802892  1.0000
  Sb  Sb5       1.0  0.39411287183675187  0.34725887516626236  0.3802897245335087  1.0000
  Sb  Sb6       1.0  0.28911146153137046  0.30830982408448104  0.6372841169471798  1.0000
  Sb  Sb7       1.0  0.5154406229793653  0.6071528448825246  0.15208660823979955  1.0000
  Sb  Sb8       1.0  0.21047975989801218  0.08368554364177812  0.9265420493630788  1.0000
  Sb  Sb9       1.0  0.7779701976598972  0.4210935035517819  0.2234888617039383  1.0000
  Sb  Sb10      1.0  0.28411796238428255  0.7070063355389199  0.7987995465887879  1.0000
  O   O1        1.0  0.4876760130670606  0.7645033516263404  0.31072815328585424  1.0000
  O   O2        1.0  0.621102098974412  0.2928356846196607  0.7622650090727787  1.0000
data_image137
_chemical_formula_structural       Eu10Cd4Sb10O2
_chemical_formula_sum              "Eu10 Cd4 Sb10 O2"
_cell_length_a       11.24426501306804
_cell_length_b       11.24426501306804
_cell_length_c       14.850709
_cell_angle_alpha    90.0
_cell_angle_beta     90.0
_cell_angle_gamma    155.89846091665316

_space_group_name_H-M_alt    "P 1"
_space_group_IT_number       1

loop_
  _space_group_symop_operation_xyz
  'x, y, z'

loop_
  _atom_site_type_symbol
  _atom_site_label
  _atom_site_symmetry_multiplicity
  _atom_site_fract_x
  _atom_site_fract_y
  _atom_site_fract_z
  _atom_site_occupancy
  Eu  Eu1       1.0  0.8113848626171457  0.4492682602942174  0.8737366070756367  1.0000
  Eu  Eu2       1.0  0.12170641888474062  0.5088133503384845  0.08628364572513532  1.0000
  Eu  Eu3       1.0  0.6180284795707508  0.17292636112132584  0.6100479658011407  1.0000
  Eu  Eu4       1.0  0.40384643492846845  0.8617844503241519  0.27251895709028223  1.0000
  Eu  Eu5       1.0  0.9044805119375718  0.10987665730531268  0.2990613059365021  1.0000
  Eu  Eu6       1.0  0.15379736639545358  0.9302362337975719  0.7112884095940034  1.0000
  Eu  Eu7       1.0  0.984162962267046  0.8774620755838013  0.2396803396945332  1.0000
  Eu  Eu8       1.0  0.8303851615833296  0.08136195766757352  0.7715186930502255  1.0000
  Eu  Eu9       1.0  0.8323673828924708  0.7648216469455216  0.5296453764638352  1.0000
  Eu  Eu10      1.0  0.965588159415938  0.07345130017876089  0.043850291293584705  1.0000
  Cd  Cd1       1.0  0.5457292331253498  0.2094892305181099  0.41374104674372425  1.0000
  Cd  Cd2       1.0  0.6489958066128866  0.8514873897175117  0.5671128450432555  1.0000
  Cd  Cd3       1.0  0.5980043322613363  0.4170722837710434  0.08599703281691595  1.0000
  Cd  Cd4       1.0  0.6798536862635057  0.07064205120657174  0.935831251482529  1.0000
  Sb  Sb1       1.0  0.03861490137425139  0.3589277339647594  0.4922241928247046  1.0000
  Sb  Sb2       1.0  0.05965894291281124  0.6735762468510299  0.4917226794176225  1.0000
  Sb  Sb3       1.0  0.4186096739055385  0.5622078865000204  0.8930173235041765  1.0000
  Sb  Sb4       1.0  0.29250158772967  0.9025741797242486  0.03928463765068546  1.0000
  Sb  Sb5       1.0  0.34207777521690397  0.289044089932268  0.39818811292840783  1.0000
  Sb  Sb6       1.0  0.2772090976503816  0.33615942390788617  0.6703071156128185  1.0000
  Sb  Sb7       1.0  0.4111707623426974  0.5195976664906222  0.16140413568184503  1.0000
  Sb  Sb8       1.0  0.16305534395159688  0.980442354555395  0.9541033178708125  1.0000
  Sb  Sb9       1.0  0.7880443985732926  0.4205012963474046  0.19853778788175902  1.0000
  Sb  Sb10      1.0  0.2580508477714984  0.6855551733507528  0.7797127472750904  1.0000
  O   O1        1.0  0.30423518537984817  0.5989054834417792  0.2740568952431476  1.0000
  O   O2        1.0  0.7735641463082535  0.4577903441539201  0.7253306627749952  1.0000
data_image138
_chemical_formula_structural       Eu10Cd4Sb10O2
_chemical_formula_sum              "Eu10 Cd4 Sb10 O2"
_cell_length_a       11.24426501306804
_cell_length_b       11.24426501306804
_cell_length_c       14.850709
_cell_angle_alpha    90.0
_cell_angle_beta     90.0
_cell_angle_gamma    155.89846091665316

_space_group_name_H-M_alt    "P 1"
_space_group_IT_number       1

loop_
  _space_group_symop_operation_xyz
  'x, y, z'

loop_
  _atom_site_type_symbol
  _atom_site_label
  _atom_site_symmetry_multiplicity
  _atom_site_fract_x
  _atom_site_fract_y
  _atom_site_fract_z
  _atom_site_occupancy
  Eu  Eu1       1.0  0.8100801223671396  0.43231009863712055  0.8430102986304734  1.0000
  Eu  Eu2       1.0  0.17809916678674162  0.5249004698935272  0.1014799240676872  1.0000
  Eu  Eu3       1.0  0.6001771042574657  0.19735261517914515  0.6139670861895808  1.0000
  Eu  Eu4       1.0  0.4044295568977371  0.8788370035977707  0.2914487346109368  1.0000
  Eu  Eu5       1.0  0.9369231987192976  0.12541011937017563  0.32428931549555357  1.0000
  Eu  Eu6       1.0  0.17430473912921307  0.9460922928205954  0.7036363667493335  1.0000
  Eu  Eu7       1.0  0.01909655248879402  0.895165129428243  0.2269272845858469  1.0000
  Eu  Eu8       1.0  0.890152522766605  0.11356496208789632  0.7808078916193771  1.0000
  Eu  Eu9       1.0  0.7952026067838136  0.7327257004996498  0.539600219632579  1.0000
  Eu  Eu10      1.0  0.9216649959314214  0.038040676744640484  0.043888360437120216  1.0000
  Cd  Cd1       1.0  0.5444242244617344  0.2190129521445338  0.38251407237287616  1.0000
  Cd  Cd2       1.0  0.5533069939565372  0.7759585025437618  0.5645278511945427  1.0000
  Cd  Cd3       1.0  0.570612979074002  0.3948301506797396  0.08038132188479584  1.0000
  Cd  Cd4       1.0  0.5573433185622183  0.948254656712038  0.9213212395268439  1.0000
  Sb  Sb1       1.0  0.09681267127915327  0.4248811033043063  0.5055579126602956  1.0000
  Sb  Sb2       1.0  0.07455120273590567  0.7220356658338908  0.5047334568171292  1.0000
  Sb  Sb3       1.0  0.4415134416353621  0.6149151386279491  0.9105769720846212  1.0000
  Sb  Sb4       1.0  0.2830128511642021  0.8653948582843954  0.004945214519010976  1.0000
  Sb  Sb5       1.0  0.28477674876966785  0.22044206559199456  0.3976995308964652  1.0000
  Sb  Sb6       1.0  0.3621123243414837  0.4428399526156676  0.6682637612667408  1.0000
  Sb  Sb7       1.0  0.4719613356961228  0.5145456691166455  0.19164514726830104  1.0000
  Sb  Sb8       1.0  0.09312988703463801  0.9413461949901853  0.9621421305455048  1.0000
  Sb  Sb9       1.0  0.8064356544160967  0.42288985058054185  0.18939352738494028  1.0000
  Sb  Sb10      1.0  0.2820466913960836  0.7214919361412853  0.7537758663159574  1.0000
  O   O1        1.0  0.00036019455669022575  0.36367305961857654  0.2764297925960287  1.0000
  O   O2        1.0  0.6886557334466243  0.405855127485432  0.7245390308752799  1.0000
data_image139
_chemical_formula_structural       Eu10Cd4Sb10O2
_chemical_formula_sum              "Eu10 Cd4 Sb10 O2"
_cell_length_a       11.24426501306804
_cell_length_b       11.24426501306804
_cell_length_c       14.850709
_cell_angle_alpha    90.0
_cell_angle_beta     90.0
_cell_angle_gamma    155.89846091665316

_space_group_name_H-M_alt    "P 1"
_space_group_IT_number       1

loop_
  _space_group_symop_operation_xyz
  'x, y, z'

loop_
  _atom_site_type_symbol
  _atom_site_label
  _atom_site_symmetry_multiplicity
  _atom_site_fract_x
  _atom_site_fract_y
  _atom_site_fract_z
  _atom_site_occupancy
  Eu  Eu1       1.0  0.7584702921465601  0.3693035244917892  0.8487844372371514  1.0000
  Eu  Eu2       1.0  0.18040059115743542  0.5177321172263822  0.12228373740012342  1.0000
  Eu  Eu3       1.0  0.6715954614512682  0.26216290611053145  0.6002690147744868  1.0000
  Eu  Eu4       1.0  0.37918194020956264  0.8632822860463131  0.33737443490537183  1.0000
  Eu  Eu5       1.0  0.9160802805453269  0.0880553111363734  0.33887429996154683  1.0000
  Eu  Eu6       1.0  0.181234657853458  0.9614746925486128  0.7140481286220182  1.0000
  Eu  Eu7       1.0  0.06759731709581315  0.8989388044668215  0.21728653244632962  1.0000
  Eu  Eu8       1.0  0.9160797679251552  0.13116349511990183  0.7885843538369588  1.0000
  Eu  Eu9       1.0  0.7997483563123994  0.7299136629473761  0.5469068973834239  1.0000
  Eu  Eu10      1.0  0.9687060593029371  0.08178957567539623  0.0447150506987654  1.0000
  Cd  Cd1       1.0  0.5607893025553792  0.2609753084338658  0.3592335848743489  1.0000
  Cd  Cd2       1.0  0.6401107100212458  0.8837749443788847  0.5660932977411565  1.0000
  Cd  Cd3       1.0  0.5588949276643448  0.3967603880687854  0.06889256934029285  1.0000
  Cd  Cd4       1.0  0.6462932556807681  0.029357661269612034  0.9315012691796247  1.0000
  Sb  Sb1       1.0  0.05221266768398447  0.43838363295444815  0.4888542220232863  1.0000
  Sb  Sb2       1.0  0.033904185521483235  0.7134323827331666  0.4630987404356081  1.0000
  Sb  Sb3       1.0  0.4271541428765817  0.570362021808864  0.9282215063870158  1.0000
  Sb  Sb4       1.0  0.2130660488471787  0.798444999134292  0.007951296768706761  1.0000
  Sb  Sb5       1.0  0.29903089694877977  0.2397795596167919  0.392196422382814  1.0000
  Sb  Sb6       1.0  0.35182998167213203  0.3935435035231982  0.672155261785599  1.0000
  Sb  Sb7       1.0  0.4150359750830853  0.4797754501334779  0.19897113122910728  1.0000
  Sb  Sb8       1.0  0.07782460576762815  0.9358597005671225  0.9389231756267518  1.0000
  Sb  Sb9       1.0  0.8293544310030476  0.43331961514806877  0.18546824555519426  1.0000
  Sb  Sb10      1.0  0.2509334814488646  0.708997357271097  0.7278581564568782  1.0000
  O   O1        1.0  0.656221162251861  0.9651983477304887  0.2443326982064203  1.0000
  O   O2        1.0  0.6352091569685728  0.3804817871791141  0.7134589376439241  1.0000
data_image140
_chemical_formula_structural       Eu10Cd4Sb10O2
_chemical_formula_sum              "Eu10 Cd4 Sb10 O2"
_cell_length_a       11.24426501306804
_cell_length_b       11.24426501306804
_cell_length_c       14.850709
_cell_angle_alpha    90.0
_cell_angle_beta     90.0
_cell_angle_gamma    155.89846091665316

_space_group_name_H-M_alt    "P 1"
_space_group_IT_number       1

loop_
  _space_group_symop_operation_xyz
  'x, y, z'

loop_
  _atom_site_type_symbol
  _atom_site_label
  _atom_site_symmetry_multiplicity
  _atom_site_fract_x
  _atom_site_fract_y
  _atom_site_fract_z
  _atom_site_occupancy
  Eu  Eu1       1.0  0.696192184866242  0.30174234847087533  0.8635783762193046  1.0000
  Eu  Eu2       1.0  0.13857330408683877  0.5001926795572387  0.14030614818956774  1.0000
  Eu  Eu3       1.0  0.6560255707708589  0.2210193723879229  0.6037431004352005  1.0000
  Eu  Eu4       1.0  0.41801567545488305  0.8689264562644811  0.3481205176245169  1.0000
  Eu  Eu5       1.0  0.822199557176031  0.01069717963607331  0.3390059804182563  1.0000
  Eu  Eu6       1.0  0.13714671119416375  0.9333519991303147  0.7399424750771701  1.0000
  Eu  Eu7       1.0  0.049524662519600436  0.871476816567787  0.1913898657500394  1.0000
  Eu  Eu8       1.0  0.9095907250185077  0.10795933879381094  0.7853448513424091  1.0000
  Eu  Eu9       1.0  0.8726842813533564  0.8233686751276079  0.5326469730164791  1.0000
  Eu  Eu10      1.0  0.9946733546230847  0.09650853310089433  0.06929366033884589  1.0000
  Cd  Cd1       1.0  0.5841836838822495  0.27245155113656644  0.35005606304910103  1.0000
  Cd  Cd2       1.0  0.6173006420823389  0.8697003273443722  0.5650474688293722  1.0000
  Cd  Cd3       1.0  0.5657327794602066  0.40115609971453664  0.03424095506908553  1.0000
  Cd  Cd4       1.0  0.6329857154813382  0.9932661141868733  0.9609619811349972  1.0000
  Sb  Sb1       1.0  0.05477060435823833  0.42360225120727646  0.4724205909176662  1.0000
  Sb  Sb2       1.0  0.07431078055087402  0.7601826287880037  0.432719737559368  1.0000
  Sb  Sb3       1.0  0.5086555810704234  0.659186391651193  0.9241646919893146  1.0000
  Sb  Sb4       1.0  0.22575928781267143  0.8040009328167034  0.005843910589754531  1.0000
  Sb  Sb5       1.0  0.3870260686899763  0.35100582293328825  0.39990839810486467  1.0000
  Sb  Sb6       1.0  0.3600077154772401  0.3967762448105225  0.6550898459141817  1.0000
  Sb  Sb7       1.0  0.38199047629620786  0.43989817519571284  0.22974331047179994  1.0000
  Sb  Sb8       1.0  0.017792690939386655  0.9152854149444413  0.9115894065069339  1.0000
  Sb  Sb9       1.0  0.7923750300170653  0.4072524154589434  0.18867205740393223  1.0000
  Sb  Sb10      1.0  0.3254935707574188  0.7844617630714201  0.7285109606404119  1.0000
  O   O1        1.0  0.6893862123881411  0.022669180095315173  0.24688936442853857  1.0000
  O   O2        1.0  0.6315470404606698  0.3874728041804626  0.7285803418971437  1.0000
data_image141
_chemical_formula_structural       Eu10Cd4Sb10O2
_chemical_formula_sum              "Eu10 Cd4 Sb10 O2"
_cell_length_a       11.24426501306804
_cell_length_b       11.24426501306804
_cell_length_c       14.850709
_cell_angle_alpha    90.0
_cell_angle_beta     90.0
_cell_angle_gamma    155.89846091665316

_space_group_name_H-M_alt    "P 1"
_space_group_IT_number       1

loop_
  _space_group_symop_operation_xyz
  'x, y, z'

loop_
  _atom_site_type_symbol
  _atom_site_label
  _atom_site_symmetry_multiplicity
  _atom_site_fract_x
  _atom_site_fract_y
  _atom_site_fract_z
  _atom_site_occupancy
  Eu  Eu1       1.0  0.6280027465454823  0.2366567941890761  0.8465698061764051  1.0000
  Eu  Eu2       1.0  0.16821473182816662  0.5259176622678209  0.16746308523992604  1.0000
  Eu  Eu3       1.0  0.6637833807377499  0.21958459673719696  0.5873771206263034  1.0000
  Eu  Eu4       1.0  0.4941561857293922  0.9152923936666013  0.34154723543803184  1.0000
  Eu  Eu5       1.0  0.833719415837661  0.999599329281292  0.3290221315301077  1.0000
  Eu  Eu6       1.0  0.08786207033185774  0.8803422275540287  0.741689239604023  1.0000
  Eu  Eu7       1.0  0.05519720668514294  0.8882732461327937  0.15969800524537414  1.0000
  Eu  Eu8       1.0  0.9387220280517552  0.1460912016979578  0.8094503421418252  1.0000
  Eu  Eu9       1.0  0.8941574586140377  0.8785902891438427  0.5322253905995523  1.0000
  Eu  Eu10      1.0  0.9534328984368226  0.059745509395429164  0.0875022230977665  1.0000
  Cd  Cd1       1.0  0.5541960077390705  0.2891954479074953  0.3408740701461175  1.0000
  Cd  Cd2       1.0  0.5956418686803177  0.868319294948293  0.5578372108897822  1.0000
  Cd  Cd3       1.0  0.5527380104604257  0.3599500184192351  0.9966560328912094  1.0000
  Cd  Cd4       1.0  0.6842787836734492  0.0365487393968662  0.9790471246564039  1.0000
  Sb  Sb1       1.0  0.027905865551652198  0.3614163195347966  0.4585618470069374  1.0000
  Sb  Sb2       1.0  0.13140235838591913  0.7869928081928966  0.4537994499529904  1.0000
  Sb  Sb3       1.0  0.4265801785013521  0.5520311917019781  0.9438346994449718  1.0000
  Sb  Sb4       1.0  0.2799666153324726  0.8678542322968605  0.028100172526391853  1.0000
  Sb  Sb5       1.0  0.4317406541799954  0.40455966566488827  0.40634449789083604  1.0000
  Sb  Sb6       1.0  0.4339575235847175  0.5009355980478054  0.6491872905965439  1.0000
  Sb  Sb7       1.0  0.4298875852939346  0.46430880744045505  0.22924802694920896  1.0000
  Sb  Sb8       1.0  0.9809439243972706  0.9485256318324679  0.9131266005148673  1.0000
  Sb  Sb9       1.0  0.6856144853610936  0.3155265934071636  0.15559240649155748  1.0000
  Sb  Sb10      1.0  0.2646879534351819  0.6999102078403727  0.7686115689145565  1.0000
  O   O1        1.0  0.7553402944198759  0.03681196448525813  0.18669513893016973  1.0000
  O   O2        1.0  0.7018896806480212  0.3971639071125122  0.7007231591704419  1.0000
data_image142
_chemical_formula_structural       Eu10Cd4Sb10O2
_chemical_formula_sum              "Eu10 Cd4 Sb10 O2"
_cell_length_a       11.24426501306804
_cell_length_b       11.24426501306804
_cell_length_c       14.850709
_cell_angle_alpha    90.0
_cell_angle_beta     90.0
_cell_angle_gamma    155.89846091665316

_space_group_name_H-M_alt    "P 1"
_space_group_IT_number       1

loop_
  _space_group_symop_operation_xyz
  'x, y, z'

loop_
  _atom_site_type_symbol
  _atom_site_label
  _atom_site_symmetry_multiplicity
  _atom_site_fract_x
  _atom_site_fract_y
  _atom_site_fract_z
  _atom_site_occupancy
  Eu  Eu1       1.0  0.6360554917801127  0.23358553389399217  0.8347518899308257  1.0000
  Eu  Eu2       1.0  0.17791632751086234  0.5274232008295807  0.15504319032163866  1.0000
  Eu  Eu3       1.0  0.7588041602955757  0.2947821419822703  0.5975329077822894  1.0000
  Eu  Eu4       1.0  0.6030410730518168  0.04901722547136189  0.31192153051461835  1.0000
  Eu  Eu5       1.0  0.877227272337399  0.9776433584244517  0.30548996870522305  1.0000
  Eu  Eu6       1.0  0.040660081635347955  0.8405654159392093  0.7584634475257539  1.0000
  Eu  Eu7       1.0  0.041662833314450615  0.8538189221924869  0.16024434916838046  1.0000
  Eu  Eu8       1.0  0.9305882328498257  0.15672466070647098  0.7847002896920259  1.0000
  Eu  Eu9       1.0  0.9181227949312691  0.9482383476805528  0.5498211152726821  1.0000
  Eu  Eu10      1.0  0.8203061314278225  0.9773633537607334  0.10991708583477278  1.0000
  Cd  Cd1       1.0  0.5306349820438668  0.2898968058272965  0.34037127406921547  1.0000
  Cd  Cd2       1.0  0.5582339404442559  0.8768454934216677  0.5685714706968511  1.0000
  Cd  Cd3       1.0  0.5724373056370883  0.379660621021024  0.9936823544334314  1.0000
  Cd  Cd4       1.0  0.6064597533806447  0.9477388089386956  0.9468858201035646  1.0000
  Sb  Sb1       1.0  0.08709602378555514  0.4147767635411998  0.44500458268164006  1.0000
  Sb  Sb2       1.0  0.27441279455708895  0.8955831357429093  0.4654918133864417  1.0000
  Sb  Sb3       1.0  0.350858438102833  0.5010994971337837  0.9530812748545067  1.0000
  Sb  Sb4       1.0  0.14639631968952538  0.7351090365597575  0.043953205698252784  1.0000
  Sb  Sb5       1.0  0.36144654855802594  0.3607712507209854  0.4176101965192251  1.0000
  Sb  Sb6       1.0  0.4423759641410359  0.511616784922618  0.6790230386102729  1.0000
  Sb  Sb7       1.0  0.4753649828556548  0.47222061251210334  0.18256955743540734  1.0000
  Sb  Sb8       1.0  0.9805089314651941  0.9213301357185779  0.9280453829171643  1.0000
  Sb  Sb9       1.0  0.671476510451267  0.29356047088843906  0.1769479198787928  1.0000
  Sb  Sb10      1.0  0.3112640960605721  0.7217083780413822  0.7741036500920035  1.0000
  O   O1        1.0  0.7472825411352955  0.020403377151848145  0.22390646578209666  1.0000
  O   O2        1.0  0.6312899848313681  0.3532036780234653  0.715685894405524  1.0000
data_image143
_chemical_formula_structural       Eu10Cd4Sb10O2
_chemical_formula_sum              "Eu10 Cd4 Sb10 O2"
_cell_length_a       11.24426501306804
_cell_length_b       11.24426501306804
_cell_length_c       14.850709
_cell_angle_alpha    90.0
_cell_angle_beta     90.0
_cell_angle_gamma    155.89846091665316

_space_group_name_H-M_alt    "P 1"
_space_group_IT_number       1

loop_
  _space_group_symop_operation_xyz
  'x, y, z'

loop_
  _atom_site_type_symbol
  _atom_site_label
  _atom_site_symmetry_multiplicity
  _atom_site_fract_x
  _atom_site_fract_y
  _atom_site_fract_z
  _atom_site_occupancy
  Eu  Eu1       1.0  0.7335085410394715  0.3198976544575416  0.8472264178482651  1.0000
  Eu  Eu2       1.0  0.20935176300244382  0.5393832309626765  0.1206642701946348  1.0000
  Eu  Eu3       1.0  0.9630147268868784  0.4788166895514684  0.5961821011115613  1.0000
  Eu  Eu4       1.0  0.633344255274137  0.0854479523990439  0.34500379902329353  1.0000
  Eu  Eu5       1.0  0.8936405902285726  0.9660612843021861  0.2888241818325646  1.0000
  Eu  Eu6       1.0  0.901850293847243  0.7210867117242965  0.7480327920937319  1.0000
  Eu  Eu7       1.0  0.058844163095648674  0.8837825335305668  0.17425739614161453  1.0000
  Eu  Eu8       1.0  0.9423697559918431  0.19187048481257213  0.7802209221703282  1.0000
  Eu  Eu9       1.0  0.8978190203547193  0.9657640824900657  0.5496458325927749  1.0000
  Eu  Eu10      1.0  0.8290954375034751  0.973643245960288  0.08690890044987724  1.0000
  Cd  Cd1       1.0  0.5281591418795805  0.27659681985898393  0.3710914158751226  1.0000
  Cd  Cd2       1.0  0.6237447439344237  0.9335229148166022  0.5822185209815662  1.0000
  Cd  Cd3       1.0  0.5003083120751493  0.28157502044705063  0.9919653577258472  1.0000
  Cd  Cd4       1.0  0.5338045424848501  0.9139748007260664  0.9459555927938162  1.0000
  Sb  Sb1       1.0  0.1214913157151225  0.43060271774184605  0.42419308960114965  1.0000
  Sb  Sb2       1.0  0.16441093178161018  0.7972473289476147  0.461015996323029  1.0000
  Sb  Sb3       1.0  0.31672924247869094  0.48614564696340695  0.9652601130728485  1.0000
  Sb  Sb4       1.0  0.9936655847931966  0.5926848808766808  0.02184832193483266  1.0000
  Sb  Sb5       1.0  0.4244599179480051  0.40245497197148405  0.4339940323012418  1.0000
  Sb  Sb6       1.0  0.40624566356428765  0.46776265225992564  0.7127643897856791  1.0000
  Sb  Sb7       1.0  0.41529129893155525  0.4087146093869648  0.16072763164042003  1.0000
  Sb  Sb8       1.0  0.9616949150632162  0.8998504887844321  0.9515109297791925  1.0000
  Sb  Sb9       1.0  0.6816316350188029  0.2971987974550428  0.17973411031812567  1.0000
  Sb  Sb10      1.0  0.3656440220704652  0.8048521483001301  0.7594109334245588  1.0000
  O   O1        1.0  0.6571276750236925  0.8817371142954598  0.2096925024401782  1.0000
  O   O2        1.0  0.7391870296576002  0.3955861332193113  0.697324266492819  1.0000
data_image144
_chemical_formula_structural       Eu10Cd4Sb10O2
_chemical_formula_sum              "Eu10 Cd4 Sb10 O2"
_cell_length_a       11.24426501306804
_cell_length_b       11.24426501306804
_cell_length_c       14.850709
_cell_angle_alpha    90.0
_cell_angle_beta     90.0
_cell_angle_gamma    155.89846091665316

_space_group_name_H-M_alt    "P 1"
_space_group_IT_number       1

loop_
  _space_group_symop_operation_xyz
  'x, y, z'

loop_
  _atom_site_type_symbol
  _atom_site_label
  _atom_site_symmetry_multiplicity
  _atom_site_fract_x
  _atom_site_fract_y
  _atom_site_fract_z
  _atom_site_occupancy
  Eu  Eu1       1.0  0.7463640808761498  0.3298931428581692  0.8114169396682807  1.0000
  Eu  Eu2       1.0  0.2525310625536512  0.6059181235663771  0.15450930676680644  1.0000
  Eu  Eu3       1.0  0.9928587417548534  0.48310512386430554  0.6141203903254294  1.0000
  Eu  Eu4       1.0  0.5988475531879491  0.048603771617415026  0.3714174002248541  1.0000
  Eu  Eu5       1.0  0.8444422272449134  0.9343201912462235  0.28718711224950966  1.0000
  Eu  Eu6       1.0  0.9266215928640389  0.8093003357963838  0.7383385806224695  1.0000
  Eu  Eu7       1.0  0.011950003029460756  0.8315222381081823  0.19831963423227394  1.0000
  Eu  Eu8       1.0  0.89909865457615  0.15038229628132377  0.7979835064841267  1.0000
  Eu  Eu9       1.0  0.9296628241142587  0.9482946095674469  0.537738318961557  1.0000
  Eu  Eu10      1.0  0.873630765868607  0.9974835141514373  0.06498286837894576  1.0000
  Cd  Cd1       1.0  0.48862652817095875  0.2114451785615525  0.3826556453802395  1.0000
  Cd  Cd2       1.0  0.6472224208487806  0.9582043781125041  0.5802757489374432  1.0000
  Cd  Cd3       1.0  0.47933013879937486  0.24132912425640737  0.9810760000083041  1.0000
  Cd  Cd4       1.0  0.6000412950823841  0.9914104311906007  0.9503908469294748  1.0000
  Sb  Sb1       1.0  0.13978274038746608  0.43317404375345  0.43587123098665215  1.0000
  Sb  Sb2       1.0  0.01679794375831166  0.7080933670632346  0.46099022894753544  1.0000
  Sb  Sb3       1.0  0.3282786386589174  0.531914773777891  0.9428312633377882  1.0000
  Sb  Sb4       1.0  0.032590757782296365  0.6262108093563007  0.003858999043020228  1.0000
  Sb  Sb5       1.0  0.40934588076603257  0.36700825733250503  0.4284452375917549  1.0000
  Sb  Sb6       1.0  0.41329389780545617  0.48585133753620896  0.7286744073825275  1.0000
  Sb  Sb7       1.0  0.4548084675180838  0.42676993287794823  0.13464826690588877  1.0000
  Sb  Sb8       1.0  0.929259229493389  0.8477533453064641  0.9519808904297633  1.0000
  Sb  Sb9       1.0  0.65257163203402  0.25523680156670914  0.16302850225764745  1.0000
  Sb  Sb10      1.0  0.39039671566992296  0.8408068060727297  0.7697750507619302  1.0000
  O   O1        1.0  0.8026304904719523  0.07162247127981655  0.19263711277673537  1.0000
  O   O2        1.0  0.9177931875088264  0.6118251984678593  0.7034829438558842  1.0000
data_image145
_chemical_formula_structural       Eu10Cd4Sb10O2
_chemical_formula_sum              "Eu10 Cd4 Sb10 O2"
_cell_length_a       11.24426501306804
_cell_length_b       11.24426501306804
_cell_length_c       14.850709
_cell_angle_alpha    90.0
_cell_angle_beta     90.0
_cell_angle_gamma    155.89846091665316

_space_group_name_H-M_alt    "P 1"
_space_group_IT_number       1

loop_
  _space_group_symop_operation_xyz
  'x, y, z'

loop_
  _atom_site_type_symbol
  _atom_site_label
  _atom_site_symmetry_multiplicity
  _atom_site_fract_x
  _atom_site_fract_y
  _atom_site_fract_z
  _atom_site_occupancy
  Eu  Eu1       1.0  0.8200505590741024  0.4359536203102097  0.8102522739430775  1.0000
  Eu  Eu2       1.0  0.2885572956753533  0.6822688013895483  0.16338258812085307  1.0000
  Eu  Eu3       1.0  0.9627458532876141  0.48536124345313936  0.6292455475804439  1.0000
  Eu  Eu4       1.0  0.5597963278616025  0.9962359431070898  0.3763108478708455  1.0000
  Eu  Eu5       1.0  0.7866260912849435  0.8958285156928708  0.30158691819130823  1.0000
  Eu  Eu6       1.0  0.0020265900554146004  0.8612347761518592  0.7335394558471994  1.0000
  Eu  Eu7       1.0  0.9755654989403114  0.7518296643323547  0.1965927643412163  1.0000
  Eu  Eu8       1.0  0.8746282495901138  0.11302010938027851  0.7983936322604969  1.0000
  Eu  Eu9       1.0  0.9545666585946296  0.9469545509054925  0.5335172612080866  1.0000
  Eu  Eu10      1.0  0.8348058889536085  0.9860539405267977  0.04558599329062612  1.0000
  Cd  Cd1       1.0  0.5116220009239792  0.2510174884638027  0.3287921022317421  1.0000
  Cd  Cd2       1.0  0.6615278449364203  0.9747604862785825  0.5846948763396094  1.0000
  Cd  Cd3       1.0  0.4036251150183338  0.1768487872684061  0.993941819525406  1.0000
  Cd  Cd4       1.0  0.6761536125957407  0.10060809506437951  0.9537621096611116  1.0000
  Sb  Sb1       1.0  0.1740012893358962  0.4528496273475534  0.4774070783491294  1.0000
  Sb  Sb2       1.0  0.029382314780984773  0.7625643022071056  0.4884996817899414  1.0000
  Sb  Sb3       1.0  0.341937879944487  0.5153072700895012  0.9341983713484333  1.0000
  Sb  Sb4       1.0  0.18922914606189664  0.7571301845228814  0.9988631368519976  1.0000
  Sb  Sb5       1.0  0.410971872821826  0.38565007593565626  0.3792192921271205  1.0000
  Sb  Sb6       1.0  0.4064724174829153  0.4560423614290852  0.7417039486455342  1.0000
  Sb  Sb7       1.0  0.3956399912553105  0.3777584284006293  0.12008202636832643  1.0000
  Sb  Sb8       1.0  0.8311181684915051  0.7406699704238293  0.9350653126411271  1.0000
  Sb  Sb9       1.0  0.5894979457068933  0.16390315630513505  0.20234244930906223  1.0000
  Sb  Sb10      1.0  0.4036498187055252  0.8200067348288562  0.7597238972396603  1.0000
  O   O1        1.0  0.7489186211402297  0.9946531432766463  0.19879981822321569  1.0000
  O   O2        1.0  0.828932784779992  0.5306353872861488  0.6792382319080297  1.0000
data_image146
_chemical_formula_structural       Eu10Cd4Sb10O2
_chemical_formula_sum              "Eu10 Cd4 Sb10 O2"
_cell_length_a       11.24426501306804
_cell_length_b       11.24426501306804
_cell_length_c       14.850709
_cell_angle_alpha    90.0
_cell_angle_beta     90.0
_cell_angle_gamma    155.89846091665316

_space_group_name_H-M_alt    "P 1"
_space_group_IT_number       1

loop_
  _space_group_symop_operation_xyz
  'x, y, z'

loop_
  _atom_site_type_symbol
  _atom_site_label
  _atom_site_symmetry_multiplicity
  _atom_site_fract_x
  _atom_site_fract_y
  _atom_site_fract_z
  _atom_site_occupancy
  Eu  Eu1       1.0  0.8601269251349793  0.5023859324892744  0.8322926704922351  1.0000
  Eu  Eu2       1.0  0.23260943666663114  0.6305331306564748  0.15696307138848092  1.0000
  Eu  Eu3       1.0  0.9306709306843844  0.4827526544880657  0.625773368673371  1.0000
  Eu  Eu4       1.0  0.586667479176245  0.030132239841701436  0.3919132317852397  1.0000
  Eu  Eu5       1.0  0.7693780320990639  0.8683507819625257  0.30219768696212496  1.0000
  Eu  Eu6       1.0  0.07756110930176423  0.8833048170343821  0.7246887329259396  1.0000
  Eu  Eu7       1.0  0.9468383924409132  0.7248357523615078  0.17398721851041202  1.0000
  Eu  Eu8       1.0  0.8422583577880448  0.026749692815599937  0.7911763997931515  1.0000
  Eu  Eu9       1.0  0.9995389887575553  0.02072254188436807  0.5503598789959785  1.0000
  Eu  Eu10      1.0  0.8203244816164267  0.979340237737986  0.070319297862252  1.0000
  Cd  Cd1       1.0  0.5921546187644955  0.3579404836221504  0.36475815869397316  1.0000
  Cd  Cd2       1.0  0.5779939408174326  0.9298678504308263  0.5851392551056619  1.0000
  Cd  Cd3       1.0  0.3308286051116353  0.1564991792468202  0.9846306690148501  1.0000
  Cd  Cd4       1.0  0.767184962542441  0.1948584225022334  0.9660335988698701  1.0000
  Sb  Sb1       1.0  0.17563124758777238  0.4457707663298275  0.4692757614711413  1.0000
  Sb  Sb2       1.0  0.06721428091759833  0.7746916203989758  0.49097143573055  1.0000
  Sb  Sb3       1.0  0.3355470403530403  0.45840607792018506  0.9141048234421189  1.0000
  Sb  Sb4       1.0  0.17943230591972115  0.7459557391793903  0.9952001384927419  1.0000
  Sb  Sb5       1.0  0.23111370203573875  0.22452268105593037  0.36595459368510147  1.0000
  Sb  Sb6       1.0  0.5014262397472078  0.5147204078324092  0.7054176661178854  1.0000
  Sb  Sb7       1.0  0.42762880938066533  0.3878072666896307  0.14458738261903636  1.0000
  Sb  Sb8       1.0  0.7790640414341544  0.6772113877362841  0.9259922127419009  1.0000
  Sb  Sb9       1.0  0.6659996941725395  0.2346637444275863  0.19555864759375496  1.0000
  Sb  Sb10      1.0  0.39792240595820316  0.8574116093759245  0.7560029429287548  1.0000
  O   O1        1.0  0.7886630939357638  0.04322686270712922  0.18630428106115254  1.0000
  O   O2        1.0  0.694543810310851  0.41464556764805505  0.6752970148577124  1.0000
data_image147
_chemical_formula_structural       Eu10Cd4Sb10O2
_chemical_formula_sum              "Eu10 Cd4 Sb10 O2"
_cell_length_a       11.24426501306804
_cell_length_b       11.24426501306804
_cell_length_c       14.850709
_cell_angle_alpha    90.0
_cell_angle_beta     90.0
_cell_angle_gamma    155.89846091665316

_space_group_name_H-M_alt    "P 1"
_space_group_IT_number       1

loop_
  _space_group_symop_operation_xyz
  'x, y, z'

loop_
  _atom_site_type_symbol
  _atom_site_label
  _atom_site_symmetry_multiplicity
  _atom_site_fract_x
  _atom_site_fract_y
  _atom_site_fract_z
  _atom_site_occupancy
  Eu  Eu1       1.0  0.8263845263883505  0.4614609936903571  0.8485805225892142  1.0000
  Eu  Eu2       1.0  0.22262832819807898  0.5841684935221955  0.16473454910025045  1.0000
  Eu  Eu3       1.0  0.9139300817198759  0.4549768168173354  0.6259548830459883  1.0000
  Eu  Eu4       1.0  0.56391767673638  0.021115034056766735  0.3941432869430635  1.0000
  Eu  Eu5       1.0  0.6927140556898871  0.837463142247762  0.26383055396873833  1.0000
  Eu  Eu6       1.0  0.18906127464797093  0.9764481251209933  0.7071014921604022  1.0000
  Eu  Eu7       1.0  0.02976449106613122  0.808910322142529  0.17092711228332852  1.0000
  Eu  Eu8       1.0  0.7782237150504868  0.9733391666117959  0.767571766879441  1.0000
  Eu  Eu9       1.0  0.0031818620056011005  0.01123209672950234  0.5516221074655979  1.0000
  Eu  Eu10      1.0  0.862553594308858  0.00399648329634591  0.07960699656705959  1.0000
  Cd  Cd1       1.0  0.6089680362590344  0.33748808042304274  0.3793311264608971  1.0000
  Cd  Cd2       1.0  0.5331821107471826  0.9010649353764576  0.6002662440694301  1.0000
  Cd  Cd3       1.0  0.30684497948003747  0.17366908886092144  0.022603038493514638  1.0000
  Cd  Cd4       1.0  0.8474578929441193  0.2446669569221549  0.9855711533945961  1.0000
  Sb  Sb1       1.0  0.1518757903721879  0.40218883475149275  0.41854692548675965  1.0000
  Sb  Sb2       1.0  0.16082497688843514  0.8678265549113378  0.4655094162350173  1.0000
  Sb  Sb3       1.0  0.30115601175368667  0.44090685017109094  0.9305325209369917  1.0000
  Sb  Sb4       1.0  0.21391398026700087  0.8115788090934727  0.03370969975713156  1.0000
  Sb  Sb5       1.0  0.21732338317173786  0.16132030038141898  0.3604071576688683  1.0000
  Sb  Sb6       1.0  0.48647432042192285  0.49125512861355664  0.6639408345532966  1.0000
  Sb  Sb7       1.0  0.3648718332979722  0.3584587814428043  0.17750397269254078  1.0000
  Sb  Sb8       1.0  0.819998502166788  0.7381256759814318  0.923084671230968  1.0000
  Sb  Sb9       1.0  0.618082416722207  0.20570659984364562  0.18773084977772722  1.0000
  Sb  Sb10      1.0  0.37919441436156626  0.843593086500912  0.775506149565068  1.0000
  O   O1        1.0  0.7463779220686747  0.02961208774271681  0.17680742500700497  1.0000
  O   O2        1.0  0.7352787238386245  0.45695951662067336  0.7083950195064743  1.0000
data_image148
_chemical_formula_structural       Eu10Cd4Sb10O2
_chemical_formula_sum              "Eu10 Cd4 Sb10 O2"
_cell_length_a       11.24426501306804
_cell_length_b       11.24426501306804
_cell_length_c       14.850709
_cell_angle_alpha    90.0
_cell_angle_beta     90.0
_cell_angle_gamma    155.89846091665316

_space_group_name_H-M_alt    "P 1"
_space_group_IT_number       1

loop_
  _space_group_symop_operation_xyz
  'x, y, z'

loop_
  _atom_site_type_symbol
  _atom_site_label
  _atom_site_symmetry_multiplicity
  _atom_site_fract_x
  _atom_site_fract_y
  _atom_site_fract_z
  _atom_site_occupancy
  Eu  Eu1       1.0  0.7694298106436088  0.43691563077899576  0.8499019897662885  1.0000
  Eu  Eu2       1.0  0.14775768859143354  0.5146848623576872  0.17315581538941366  1.0000
  Eu  Eu3       1.0  0.906557495026107  0.4487441478621262  0.6352068469113725  1.0000
  Eu  Eu4       1.0  0.5408702781640394  0.9697408440866252  0.3957533173623204  1.0000
  Eu  Eu5       1.0  0.6716036538370466  0.8273461848952897  0.2793602955105238  1.0000
  Eu  Eu6       1.0  0.26586662970168223  0.03853878756674356  0.6787335264993045  1.0000
  Eu  Eu7       1.0  0.99947379510142  0.7975594208207357  0.18870939134094755  1.0000
  Eu  Eu8       1.0  0.7711241219269779  0.0070986184762974434  0.7992772393777987  1.0000
  Eu  Eu9       1.0  0.00348224200450834  0.01254447375864086  0.5213628165333595  1.0000
  Eu  Eu10      1.0  0.8526462484744574  0.9764129174014868  0.055318647141442016  1.0000
  Cd  Cd1       1.0  0.7081849695410354  0.4104049801219874  0.3743700070675477  1.0000
  Cd  Cd2       1.0  0.5207270127992463  0.8813013005345373  0.5701330595001717  1.0000
  Cd  Cd3       1.0  0.4101228116465726  0.2802629663401155  0.006913834720777253  1.0000
  Cd  Cd4       1.0  0.8646563509480223  0.2624378436942554  0.9606242579205211  1.0000
  Sb  Sb1       1.0  0.15340945782694093  0.3923597526456766  0.38849665575623815  1.0000
  Sb  Sb2       1.0  0.12847375143991474  0.7631748038218594  0.4897881767749098  1.0000
  Sb  Sb3       1.0  0.3280867019644311  0.5462529780118044  0.9394874251435283  1.0000
  Sb  Sb4       1.0  0.27057738348318844  0.8482461056873696  0.04346456824194744  1.0000
  Sb  Sb5       1.0  0.3086497070901759  0.21992175308875836  0.36613059585927804  1.0000
  Sb  Sb6       1.0  0.3589749787836971  0.3913164245184948  0.686108537086086  1.0000
  Sb  Sb7       1.0  0.26993126580474897  0.27715466127959204  0.1993385019920843  1.0000
  Sb  Sb8       1.0  0.8382713143398222  0.7493599627235026  0.8919378304729306  1.0000
  Sb  Sb9       1.0  0.6792709949162563  0.248341734307025  0.19441381263347482  1.0000
  Sb  Sb10      1.0  0.3744248206125071  0.8481890487088618  0.8075531200891896  1.0000
  O   O1        1.0  0.738375451598608  0.9942458302513839  0.1512929603338778  1.0000
  O   O2        1.0  0.7470401246077427  0.4724380207157674  0.7030140047887308  1.0000
data_image149
_chemical_formula_structural       Eu10Cd4Sb10O2
_chemical_formula_sum              "Eu10 Cd4 Sb10 O2"
_cell_length_a       11.24426501306804
_cell_length_b       11.24426501306804
_cell_length_c       14.850709
_cell_angle_alpha    90.0
_cell_angle_beta     90.0
_cell_angle_gamma    155.89846091665316

_space_group_name_H-M_alt    "P 1"
_space_group_IT_number       1

loop_
  _space_group_symop_operation_xyz
  'x, y, z'

loop_
  _atom_site_type_symbol
  _atom_site_label
  _atom_site_symmetry_multiplicity
  _atom_site_fract_x
  _atom_site_fract_y
  _atom_site_fract_z
  _atom_site_occupancy
  Eu  Eu1       1.0  0.7675029627223122  0.449585779491411  0.8548097996615565  1.0000
  Eu  Eu2       1.0  0.0988617391371193  0.44478049989916946  0.16490478319485208  1.0000
  Eu  Eu3       1.0  0.8655675038735144  0.36919504177421747  0.6540253359010644  1.0000
  Eu  Eu4       1.0  0.5476132836977777  0.9888394252938413  0.35785191775035236  1.0000
  Eu  Eu5       1.0  0.7321064757144561  0.8504957301106395  0.3039480121105226  1.0000
  Eu  Eu6       1.0  0.24373097582408534  0.02480310864888491  0.6534559349847806  1.0000
  Eu  Eu7       1.0  0.9777196550264945  0.7569949045260416  0.20580447731157475  1.0000
  Eu  Eu8       1.0  0.8919680610028193  0.13577047124422964  0.7944491727217727  1.0000
  Eu  Eu9       1.0  0.8944298344444804  0.9470281069328121  0.5170618984298062  1.0000
  Eu  Eu10      1.0  0.7917670440008029  0.8877818384640569  0.04803888551370593  1.0000
  Cd  Cd1       1.0  0.6872167491929123  0.3918852925858711  0.39073646255905137  1.0000
  Cd  Cd2       1.0  0.5269018362021995  0.8441833464322511  0.548743585583077  1.0000
  Cd  Cd3       1.0  0.47544524275988803  0.336682697874792  0.013294095595603595  1.0000
  Cd  Cd4       1.0  0.7471192181631919  0.18209668051355798  0.967622904158595  1.0000
  Sb  Sb1       1.0  0.08390172386012762  0.3659018428613937  0.38948946096595105  1.0000
  Sb  Sb2       1.0  0.2691547459035405  0.8580305338328394  0.5119803223529649  1.0000
  Sb  Sb3       1.0  0.3115578017171885  0.5438871729680881  0.9491907396583443  1.0000
  Sb  Sb4       1.0  0.28457353157286386  0.8527095297210685  0.0342417606882921  1.0000
  Sb  Sb5       1.0  0.35601247776553  0.2803773487825339  0.3791126027124955  1.0000
  Sb  Sb6       1.0  0.24133268469202254  0.2855772839039053  0.7259041690980902  1.0000
  Sb  Sb7       1.0  0.33839298359218495  0.3582828434616631  0.1884732347612437  1.0000
  Sb  Sb8       1.0  0.02316640428400464  0.9425817570548839  0.8569718142852619  1.0000
  Sb  Sb9       1.0  0.6588693995641226  0.2429966006167594  0.18157580222744255  1.0000
  Sb  Sb10      1.0  0.3550870252550983  0.8448546124653397  0.8030012118890523  1.0000
  O   O1        1.0  0.6609930913136586  0.9560084886159308  0.22686229170155098  1.0000
  O   O2        1.0  0.7888139356146113  0.5067068813570088  0.6818273275389044  1.0000
data_image150
_chemical_formula_structural       Eu10Cd4Sb10O2
_chemical_formula_sum              "Eu10 Cd4 Sb10 O2"
_cell_length_a       11.24426501306804
_cell_length_b       11.24426501306804
_cell_length_c       14.850709
_cell_angle_alpha    90.0
_cell_angle_beta     90.0
_cell_angle_gamma    155.89846091665316

_space_group_name_H-M_alt    "P 1"
_space_group_IT_number       1

loop_
  _space_group_symop_operation_xyz
  'x, y, z'

loop_
  _atom_site_type_symbol
  _atom_site_label
  _atom_site_symmetry_multiplicity
  _atom_site_fract_x
  _atom_site_fract_y
  _atom_site_fract_z
  _atom_site_occupancy
  Eu  Eu1       1.0  0.7602413528709151  0.4405347957495666  0.823063917526766  1.0000
  Eu  Eu2       1.0  0.09640148587070178  0.4329246888576552  0.16172239023949936  1.0000
  Eu  Eu3       1.0  0.8791529118411094  0.35487375483232253  0.6496027421550467  1.0000
  Eu  Eu4       1.0  0.561351936725705  0.9851937990042345  0.3117544778917665  1.0000
  Eu  Eu5       1.0  0.6932142342453385  0.8096799081021094  0.3268517600030615  1.0000
  Eu  Eu6       1.0  0.17095753552616216  0.9554010768979382  0.6373095009507113  1.0000
  Eu  Eu7       1.0  0.9979512602705151  0.8110958201888354  0.23885460957420707  1.0000
  Eu  Eu8       1.0  0.8547535156305283  0.11518859943057207  0.8013757640719855  1.0000
  Eu  Eu9       1.0  0.7097784922436965  0.771007766480884  0.5281400964543274  1.0000
  Eu  Eu10      1.0  0.8381502475565445  0.9159087301829674  0.042052058346214706  1.0000
  Cd  Cd1       1.0  0.6880714818687311  0.37083146959331575  0.4093486495549228  1.0000
  Cd  Cd2       1.0  0.5609000137861341  0.8941552145457068  0.5155235898015285  1.0000
  Cd  Cd3       1.0  0.42751266803090143  0.3047496455713254  0.03935683297026299  1.0000
  Cd  Cd4       1.0  0.7927483752199154  0.2099302645009069  0.9713245850870876  1.0000
  Sb  Sb1       1.0  0.11102046494029505  0.3952407639365203  0.43076592249496815  1.0000
  Sb  Sb2       1.0  0.3112831994685652  0.8901759367669296  0.5136945924143109  1.0000
  Sb  Sb3       1.0  0.2783247592922391  0.4998499333346794  0.9561186954540889  1.0000
  Sb  Sb4       1.0  0.2086017305431241  0.7883205393773166  0.05056650029612175  1.0000
  Sb  Sb5       1.0  0.36395980835897124  0.30199943618363995  0.3829779205539005  1.0000
  Sb  Sb6       1.0  0.3323841108331631  0.38062720963208596  0.6739879523468217  1.0000
  Sb  Sb7       1.0  0.38844271860534735  0.4191077719487137  0.18559428275684256  1.0000
  Sb  Sb8       1.0  0.09548714456312314  0.022477386487729293  0.8795008449328477  1.0000
  Sb  Sb9       1.0  0.7468408698599838  0.34831950682912904  0.17529789553783431  1.0000
  Sb  Sb10      1.0  0.35977057677556573  0.8345580028376911  0.8054001040404505  1.0000
  O   O1        1.0  0.7095647896477983  0.9560298390702987  0.1910914894926004  1.0000
  O   O2        1.0  0.7804409531101361  0.4993923331669015  0.6772663142872882  1.0000
data_image151
_chemical_formula_structural       Eu10Cd4Sb10O2
_chemical_formula_sum              "Eu10 Cd4 Sb10 O2"
_cell_length_a       11.24426501306804
_cell_length_b       11.24426501306804
_cell_length_c       14.850709
_cell_angle_alpha    90.0
_cell_angle_beta     90.0
_cell_angle_gamma    155.89846091665316

_space_group_name_H-M_alt    "P 1"
_space_group_IT_number       1

loop_
  _space_group_symop_operation_xyz
  'x, y, z'

loop_
  _atom_site_type_symbol
  _atom_site_label
  _atom_site_symmetry_multiplicity
  _atom_site_fract_x
  _atom_site_fract_y
  _atom_site_fract_z
  _atom_site_occupancy
  Eu  Eu1       1.0  0.7405725854265646  0.4240451821771166  0.8235677789808677  1.0000
  Eu  Eu2       1.0  0.13196486784007633  0.4667364210634013  0.1606187462304954  1.0000
  Eu  Eu3       1.0  0.8316729368970929  0.3158053310354123  0.6109012802670607  1.0000
  Eu  Eu4       1.0  0.49423499387660774  0.9110612918143777  0.30926142494702435  1.0000
  Eu  Eu5       1.0  0.7694924873705431  0.9209110173225888  0.3284012059499243  1.0000
  Eu  Eu6       1.0  0.19302699526606248  0.9469815315087908  0.6317806190869508  1.0000
  Eu  Eu7       1.0  0.06094686013324742  0.8888968243808525  0.2683156183101963  1.0000
  Eu  Eu8       1.0  0.867211446523958  0.09910501625552742  0.7944725699572731  1.0000
  Eu  Eu9       1.0  0.773213549551615  0.8463964922256038  0.5178166369771118  1.0000
  Eu  Eu10      1.0  0.876604078840452  0.9681607276123187  0.0618196762722243  1.0000
  Cd  Cd1       1.0  0.7336489541935105  0.4238187428755616  0.4084377977412985  1.0000
  Cd  Cd2       1.0  0.5684595583474727  0.9050419766131673  0.5384367821204211  1.0000
  Cd  Cd3       1.0  0.4410120401756169  0.2979879857370401  0.027487048840296544  1.0000
  Cd  Cd4       1.0  0.7152300475278472  0.1291232345849218  0.009574376356818792  1.0000
  Sb  Sb1       1.0  0.13611868586273834  0.40709283206257013  0.4370506840843659  1.0000
  Sb  Sb2       1.0  0.20269554442914164  0.7779346868259601  0.4679181739543718  1.0000
  Sb  Sb3       1.0  0.32896608159838836  0.5484494232287913  0.960632251261573  1.0000
  Sb  Sb4       1.0  0.1019510213055213  0.7084401365481323  0.02884230760570361  1.0000
  Sb  Sb5       1.0  0.4271268932756901  0.3365581020951756  0.40252853560364693  1.0000
  Sb  Sb6       1.0  0.32610917229998554  0.378034256087742  0.6740415308080143  1.0000
  Sb  Sb7       1.0  0.37543179723675785  0.40531615388025477  0.18316368972403907  1.0000
  Sb  Sb8       1.0  0.07955291098829552  0.9924424307503951  0.8744197152089729  1.0000
  Sb  Sb9       1.0  0.7184395607976268  0.3482946119944992  0.16573376555388972  1.0000
  Sb  Sb10      1.0  0.30453561748789687  0.7759724427742783  0.8346999779747044  1.0000
  O   O1        1.0  0.743404774900797  0.9963951626790298  0.19204863458788013  1.0000
  O   O2        1.0  0.6406807810548663  0.31204416974511573  0.6612436988925664  1.0000
data_image152
_chemical_formula_structural       Eu10Cd4Sb10O2
_chemical_formula_sum              "Eu10 Cd4 Sb10 O2"
_cell_length_a       11.24426501306804
_cell_length_b       11.24426501306804
_cell_length_c       14.850709
_cell_angle_alpha    90.0
_cell_angle_beta     90.0
_cell_angle_gamma    155.89846091665316

_space_group_name_H-M_alt    "P 1"
_space_group_IT_number       1

loop_
  _space_group_symop_operation_xyz
  'x, y, z'

loop_
  _atom_site_type_symbol
  _atom_site_label
  _atom_site_symmetry_multiplicity
  _atom_site_fract_x
  _atom_site_fract_y
  _atom_site_fract_z
  _atom_site_occupancy
  Eu  Eu1       1.0  0.7016957433130787  0.41119047471108217  0.8285622207752421  1.0000
  Eu  Eu2       1.0  0.14356186490677178  0.48387330521803634  0.13825279917555247  1.0000
  Eu  Eu3       1.0  0.8666653984637678  0.3889949318766291  0.5978784571442017  1.0000
  Eu  Eu4       1.0  0.501352466128935  0.9099045162404232  0.32234231334008995  1.0000
  Eu  Eu5       1.0  0.7908455512486836  0.9476854012987529  0.3183365573204606  1.0000
  Eu  Eu6       1.0  0.22226396844925017  0.9580780308369544  0.6224298923769017  1.0000
  Eu  Eu7       1.0  0.09527992422297096  0.9153170178951101  0.2581590345517209  1.0000
  Eu  Eu8       1.0  0.9068206323399324  0.12908303677898322  0.8098793045662098  1.0000
  Eu  Eu9       1.0  0.9610131369044496  0.9723313368225289  0.5208200205727186  1.0000
  Eu  Eu10      1.0  0.8166369217220978  0.9252888887214101  0.06980249370242639  1.0000
  Cd  Cd1       1.0  0.6885514426025896  0.3590093625805283  0.38642201341803395  1.0000
  Cd  Cd2       1.0  0.5550977943341585  0.8553952169886422  0.5555942346507758  1.0000
  Cd  Cd3       1.0  0.4861011995399832  0.30560769455011494  0.05387908254385469  1.0000
  Cd  Cd4       1.0  0.6425570446178175  0.05019011270852913  0.016955268576519522  1.0000
  Sb  Sb1       1.0  0.16328157496751494  0.42680408959838084  0.43764769403048354  1.0000
  Sb  Sb2       1.0  0.29961911020535825  0.8747437518514328  0.46620631414054936  1.0000
  Sb  Sb3       1.0  0.27260641456466517  0.5237988740812856  0.9541478568693547  1.0000
  Sb  Sb4       1.0  0.9959412658411525  0.6477901477115645  0.9978883794755589  1.0000
  Sb  Sb5       1.0  0.46536618709696453  0.4240307189685297  0.39401931232571025  1.0000
  Sb  Sb6       1.0  0.2890190253754945  0.3331757279890285  0.7107258196157562  1.0000
  Sb  Sb7       1.0  0.41139985466912915  0.42502567067315455  0.20860938212721036  1.0000
  Sb  Sb8       1.0  0.9690537181761184  0.8953029155795004  0.8347823751011162  1.0000
  Sb  Sb9       1.0  0.6304136303885219  0.2446800325722437  0.18690680531813217  1.0000
  Sb  Sb10      1.0  0.2684630247125085  0.7475450883108209  0.834432936918898  1.0000
  O   O1        1.0  0.6076166813155854  0.9038318558596423  0.18761655351107892  1.0000
  O   O2        1.0  0.6639303395531527  0.3537172218643584  0.6806951920529798  1.0000
data_image153
_chemical_formula_structural       Eu10Cd4Sb10O2
_chemical_formula_sum              "Eu10 Cd4 Sb10 O2"
_cell_length_a       11.24426501306804
_cell_length_b       11.24426501306804
_cell_length_c       14.850709
_cell_angle_alpha    90.0
_cell_angle_beta     90.0
_cell_angle_gamma    155.89846091665316

_space_group_name_H-M_alt    "P 1"
_space_group_IT_number       1

loop_
  _space_group_symop_operation_xyz
  'x, y, z'

loop_
  _atom_site_type_symbol
  _atom_site_label
  _atom_site_symmetry_multiplicity
  _atom_site_fract_x
  _atom_site_fract_y
  _atom_site_fract_z
  _atom_site_occupancy
  Eu  Eu1       1.0  0.5631855550598112  0.2836898159071336  0.8222333475534022  1.0000
  Eu  Eu2       1.0  0.16336400166911977  0.5245179950083708  0.16175524990068302  1.0000
  Eu  Eu3       1.0  0.9692059519101951  0.4582671557894745  0.6219751855516733  1.0000
  Eu  Eu4       1.0  0.5249823132914091  0.9550464694847731  0.3159397020025408  1.0000
  Eu  Eu5       1.0  0.850408185118209  0.9952143184252399  0.30188625793280693  1.0000
  Eu  Eu6       1.0  0.19881989947595788  0.9530298129517187  0.6447763490273327  1.0000
  Eu  Eu7       1.0  0.07680875460235409  0.8752425374527911  0.26114308652102713  1.0000
  Eu  Eu8       1.0  0.7492863101895677  0.9866696123705079  0.8190231596552204  1.0000
  Eu  Eu9       1.0  0.026149716708034693  0.005179087234426959  0.5426265389623199  1.0000
  Eu  Eu10      1.0  0.8329868110296319  0.9360855261288784  0.05691321535415766  1.0000
  Cd  Cd1       1.0  0.7247798017901743  0.4190860302611408  0.3764700226512369  1.0000
  Cd  Cd2       1.0  0.5197826402258054  0.8390373768041052  0.5897830450815572  1.0000
  Cd  Cd3       1.0  0.5141110856317057  0.29773857709089596  0.06988205123690364  1.0000
  Cd  Cd4       1.0  0.5518733654934076  0.9721163640655932  0.992558112021947  1.0000
  Sb  Sb1       1.0  0.21031039135607688  0.4738159264780096  0.4362444457857001  1.0000
  Sb  Sb2       1.0  0.31388696822084045  0.9141409465066817  0.4689400314744896  1.0000
  Sb  Sb3       1.0  0.21050520509297854  0.4658657521698369  0.9469268214485229  1.0000
  Sb  Sb4       1.0  0.08805042697089882  0.686955432699129  0.010873210362019936  1.0000
  Sb  Sb5       1.0  0.43146646061720945  0.40146690294000015  0.386223155559885  1.0000
  Sb  Sb6       1.0  0.3820911855987313  0.42419266135662886  0.7015128470172047  1.0000
  Sb  Sb7       1.0  0.32217592557858976  0.3351796858604976  0.18229477752721887  1.0000
  Sb  Sb8       1.0  0.9686883534473086  0.9210683583937297  0.7994951016875025  1.0000
  Sb  Sb9       1.0  0.6583484293424599  0.2565258633889569  0.181799665536009  1.0000
  Sb  Sb10      1.0  0.26642169029805113  0.7506726849245403  0.8158642654648139  1.0000
  O   O1        1.0  0.764259319897613  0.06487355236778863  0.19375409813276356  1.0000
  O   O2        1.0  0.7618517889906186  0.4706102474463702  0.6931097212756459  1.0000
data_image154
_chemical_formula_structural       Eu10Cd4Sb10O2
_chemical_formula_sum              "Eu10 Cd4 Sb10 O2"
_cell_length_a       11.24426501306804
_cell_length_b       11.24426501306804
_cell_length_c       14.850709
_cell_angle_alpha    90.0
_cell_angle_beta     90.0
_cell_angle_gamma    155.89846091665316

_space_group_name_H-M_alt    "P 1"
_space_group_IT_number       1

loop_
  _space_group_symop_operation_xyz
  'x, y, z'

loop_
  _atom_site_type_symbol
  _atom_site_label
  _atom_site_symmetry_multiplicity
  _atom_site_fract_x
  _atom_site_fract_y
  _atom_site_fract_z
  _atom_site_occupancy
  Eu  Eu1       1.0  0.5953323575551001  0.2855476014147452  0.8311746488951871  1.0000
  Eu  Eu2       1.0  0.15454719395803143  0.5114340347641533  0.18069517513616115  1.0000
  Eu  Eu3       1.0  0.8654470981170049  0.37866142437653516  0.6228080975469066  1.0000
  Eu  Eu4       1.0  0.5310964883329304  0.9803436426244189  0.34013986914529676  1.0000
  Eu  Eu5       1.0  0.8892245105345974  0.027748582235691387  0.28622601023180155  1.0000
  Eu  Eu6       1.0  0.17402984190352488  0.9211743931385358  0.6638752145272562  1.0000
  Eu  Eu7       1.0  0.9849439054748084  0.8034856788988604  0.24540773811621516  1.0000
  Eu  Eu8       1.0  0.731421137112043  0.9566066623396168  0.8064311076632666  1.0000
  Eu  Eu9       1.0  0.07554684521244344  0.058285011590270996  0.5284225693547489  1.0000
  Eu  Eu10      1.0  0.8392988524975948  0.9408783043308712  0.06980014672875917  1.0000
  Cd  Cd1       1.0  0.6900596577849141  0.38551591180904893  0.3781848225330853  1.0000
  Cd  Cd2       1.0  0.4750324664853443  0.8097834270936309  0.608763453181723  1.0000
  Cd  Cd3       1.0  0.5280480687489475  0.3412615471918412  0.042954117662922064  1.0000
  Cd  Cd4       1.0  0.6676971736010984  0.07014532276002994  0.9704996803640925  1.0000
  Sb  Sb1       1.0  0.15282467413006717  0.44032509522173346  0.4408092106242797  1.0000
  Sb  Sb2       1.0  0.24401693621152362  0.8960864025363737  0.4772651349721601  1.0000
  Sb  Sb3       1.0  0.19567949590338185  0.42166853735076704  0.9758588278753557  1.0000
  Sb  Sb4       1.0  0.13440158971927632  0.7178276707976672  0.9883000495224907  1.0000
  Sb  Sb5       1.0  0.5051257743124474  0.4173690258774897  0.3731816326955506  1.0000
  Sb  Sb6       1.0  0.3895759902043438  0.4684223123832437  0.7243477545330876  1.0000
  Sb  Sb7       1.0  0.3775568478586736  0.3603997893978632  0.16567757078133752  1.0000
  Sb  Sb8       1.0  0.01042163924504287  0.9493683713791775  0.8091456895617994  1.0000
  Sb  Sb9       1.0  0.6931199139318545  0.3005370891966847  0.1654543809798499  1.0000
  Sb  Sb10      1.0  0.25462763600225075  0.7391234731514558  0.8071630228128398  1.0000
  O   O1        1.0  0.7420133194228176  0.9871409899194478  0.16489944368650214  1.0000
  O   O2        1.0  0.7382097393324454  0.4288300883903912  0.6891519490855937  1.0000
data_image155
_chemical_formula_structural       Eu10Cd4Sb10O2
_chemical_formula_sum              "Eu10 Cd4 Sb10 O2"
_cell_length_a       11.24426501306804
_cell_length_b       11.24426501306804
_cell_length_c       14.850709
_cell_angle_alpha    90.0
_cell_angle_beta     90.0
_cell_angle_gamma    155.89846091665316

_space_group_name_H-M_alt    "P 1"
_space_group_IT_number       1

loop_
  _space_group_symop_operation_xyz
  'x, y, z'

loop_
  _atom_site_type_symbol
  _atom_site_label
  _atom_site_symmetry_multiplicity
  _atom_site_fract_x
  _atom_site_fract_y
  _atom_site_fract_z
  _atom_site_occupancy
  Eu  Eu1       1.0  0.6540479179487918  0.3565631883103388  0.8325143671915884  1.0000
  Eu  Eu2       1.0  0.16896477757274658  0.5282360265552496  0.17391430807236608  1.0000
  Eu  Eu3       1.0  0.7705608449297378  0.2846199493967845  0.6209809984192679  1.0000
  Eu  Eu4       1.0  0.4711045678629359  0.9373188698718455  0.38838679839328916  1.0000
  Eu  Eu5       1.0  0.8901025738623268  0.01729765044324847  0.29200263505946833  1.0000
  Eu  Eu6       1.0  0.10821675071185091  0.8834504358801356  0.679804608120564  1.0000
  Eu  Eu7       1.0  0.031100900139091222  0.8500202314003953  0.2396496549749555  1.0000
  Eu  Eu8       1.0  0.8329565327541831  0.052896255148823706  0.7951253799724597  1.0000
  Eu  Eu9       1.0  0.0417902141120959  0.03358874926884635  0.5273970598546288  1.0000
  Eu  Eu10      1.0  0.7765377741643252  0.8884404292298701  0.06203258363200101  1.0000
  Cd  Cd1       1.0  0.7646574953392673  0.42270618240811664  0.37514296735632074  1.0000
  Cd  Cd2       1.0  0.3950889080499403  0.7038133935102566  0.5874398164998447  1.0000
  Cd  Cd3       1.0  0.6230997454983073  0.40546547348100537  0.003363119046147212  1.0000
  Cd  Cd4       1.0  0.6418273693581453  0.02542955963795057  0.9673462943926717  1.0000
  Sb  Sb1       1.0  0.06872712553379379  0.32921722962679906  0.4674988557222221  1.0000
  Sb  Sb2       1.0  0.18714446566393336  0.8784774408102637  0.4867623858770937  1.0000
  Sb  Sb3       1.0  0.27076928670887357  0.5089577566891728  0.9474742127148269  1.0000
  Sb  Sb4       1.0  0.20254071745360722  0.802336482995912  0.9837348792278494  1.0000
  Sb  Sb5       1.0  0.4826816808143971  0.39812773182687083  0.37632813625796585  1.0000
  Sb  Sb6       1.0  0.4438353854489322  0.4699711613606154  0.6923486856022808  1.0000
  Sb  Sb7       1.0  0.4621001906162339  0.4407725769491149  0.16388500744838694  1.0000
  Sb  Sb8       1.0  0.03688871065117592  0.9637855854688911  0.8622204734507967  1.0000
  Sb  Sb9       1.0  0.6332392888215737  0.28600677240957006  0.17531846273409438  1.0000
  Sb  Sb10      1.0  0.2593753508874954  0.7383528243073522  0.7849200973275985  1.0000
  O   O1        1.0  0.6823128094734289  0.9882163444711252  0.18215031590070088  1.0000
  O   O2        1.0  0.571696543736299  0.2653402571586352  0.6894780667626254  1.0000
data_image156
_chemical_formula_structural       Eu10Cd4Sb10O2
_chemical_formula_sum              "Eu10 Cd4 Sb10 O2"
_cell_length_a       11.24426501306804
_cell_length_b       11.24426501306804
_cell_length_c       14.850709
_cell_angle_alpha    90.0
_cell_angle_beta     90.0
_cell_angle_gamma    155.89846091665316

_space_group_name_H-M_alt    "P 1"
_space_group_IT_number       1

loop_
  _space_group_symop_operation_xyz
  'x, y, z'

loop_
  _atom_site_type_symbol
  _atom_site_label
  _atom_site_symmetry_multiplicity
  _atom_site_fract_x
  _atom_site_fract_y
  _atom_site_fract_z
  _atom_site_occupancy
  Eu  Eu1       1.0  0.6450347087497695  0.3497522279706793  0.8211155363823338  1.0000
  Eu  Eu2       1.0  0.14310775259821232  0.5290946043989327  0.1853380557963538  1.0000
  Eu  Eu3       1.0  0.7107073726919954  0.21180595431070476  0.6250074548818185  1.0000
  Eu  Eu4       1.0  0.3972904910571746  0.8301210966001085  0.40495843249734786  1.0000
  Eu  Eu5       1.0  0.895785313040935  0.01082847768644536  0.29102856722350845  1.0000
  Eu  Eu6       1.0  0.13053128311201057  0.9194647147597824  0.6688153666922532  1.0000
  Eu  Eu7       1.0  0.1400796158456674  0.9554339841976792  0.26926881209681763  1.0000
  Eu  Eu8       1.0  0.8238487393450968  0.047462012425394176  0.7552381501758529  1.0000
  Eu  Eu9       1.0  0.9310980100025555  0.9336129196852986  0.5264091339097726  1.0000
  Eu  Eu10      1.0  0.8574711028685161  0.963537743424458  0.05145857350402558  1.0000
  Cd  Cd1       1.0  0.7295991605089762  0.39370043247631725  0.3626461725883813  1.0000
  Cd  Cd2       1.0  0.4543606877866821  0.7582882487006531  0.6056521615473535  1.0000
  Cd  Cd3       1.0  0.6610261517419108  0.47374699292075184  0.006349614136183981  1.0000
  Cd  Cd4       1.0  0.632962154172208  0.9976849989442476  0.9746580968044682  1.0000
  Sb  Sb1       1.0  0.9883584692945117  0.2549823774028063  0.4589031069308867  1.0000
  Sb  Sb2       1.0  0.2262030255242137  0.9275741424764358  0.47836964560011125  1.0000
  Sb  Sb3       1.0  0.22292534284566545  0.4566186450472289  0.9163530841482512  1.0000
  Sb  Sb4       1.0  0.2874620625055457  0.8895016285078772  0.9918754108835395  1.0000
  Sb  Sb5       1.0  0.5095609573980371  0.4583206450060338  0.38989025183253495  1.0000
  Sb  Sb6       1.0  0.5072164646352803  0.5122569244811664  0.7055031993463783  1.0000
  Sb  Sb7       1.0  0.4528277593058332  0.42538258194351447  0.16796695469539372  1.0000
  Sb  Sb8       1.0  0.03798848715606858  0.9550048103207391  0.8917685463726828  1.0000
  Sb  Sb9       1.0  0.5859020801668233  0.2111519189621267  0.17273773013301028  1.0000
  Sb  Sb10      1.0  0.24255027311126387  0.750410987839574  0.770980627381456  1.0000
  O   O1        1.0  0.9754727535607375  0.19190831260381686  0.1694702486778867  1.0000
  O   O2        1.0  0.5260903651691381  0.235134406152418  0.6925783260023672  1.0000
data_image157
_chemical_formula_structural       Eu10Cd4Sb10O2
_chemical_formula_sum              "Eu10 Cd4 Sb10 O2"
_cell_length_a       11.24426501306804
_cell_length_b       11.24426501306804
_cell_length_c       14.850709
_cell_angle_alpha    90.0
_cell_angle_beta     90.0
_cell_angle_gamma    155.89846091665316

_space_group_name_H-M_alt    "P 1"
_space_group_IT_number       1

loop_
  _space_group_symop_operation_xyz
  'x, y, z'

loop_
  _atom_site_type_symbol
  _atom_site_label
  _atom_site_symmetry_multiplicity
  _atom_site_fract_x
  _atom_site_fract_y
  _atom_site_fract_z
  _atom_site_occupancy
  Eu  Eu1       1.0  0.7058368878592756  0.3750650276792173  0.8373205731927167  1.0000
  Eu  Eu2       1.0  0.14701971778647435  0.547604571884725  0.17067250472031936  1.0000
  Eu  Eu3       1.0  0.7776146642893853  0.2998934157141826  0.6177780576808946  1.0000
  Eu  Eu4       1.0  0.3519215935148021  0.7726326172769296  0.3886577668657119  1.0000
  Eu  Eu5       1.0  0.9216543931836664  0.04987457149321392  0.2801487123483578  1.0000
  Eu  Eu6       1.0  0.1547202664528076  0.930088716021419  0.6831592690199596  1.0000
  Eu  Eu7       1.0  0.1426364567553661  0.9496329891766946  0.2597580038646174  1.0000
  Eu  Eu8       1.0  0.8493206926182985  0.05674107868051795  0.7527701972287226  1.0000
  Eu  Eu9       1.0  0.8442228584335659  0.8985920910293835  0.5341356932596689  1.0000
  Eu  Eu10      1.0  0.9502501799584074  0.048714317887609555  0.055466177157311364  1.0000
  Cd  Cd1       1.0  0.6783127144428113  0.32545599086388427  0.34838570583052453  1.0000
  Cd  Cd2       1.0  0.3660612904916082  0.6544224558612847  0.6216299458500457  1.0000
  Cd  Cd3       1.0  0.6217699461286661  0.4761144119240395  0.035570197090096935  1.0000
  Cd  Cd4       1.0  0.6551555811652964  0.9909830935246872  0.9599031274486387  1.0000
  Sb  Sb1       1.0  0.9408534103957821  0.22975177522012424  0.4753839922018944  1.0000
  Sb  Sb2       1.0  0.22330529120468834  0.8964365682488411  0.46300038878877575  1.0000
  Sb  Sb3       1.0  0.2653536985631959  0.47688213579141375  0.9136951289800138  1.0000
  Sb  Sb4       1.0  0.19546713460694978  0.8643198998285511  0.9930435912253759  1.0000
  Sb  Sb5       1.0  0.47281212938473516  0.4552331609193224  0.3947329434963223  1.0000
  Sb  Sb6       1.0  0.48533258850622607  0.5140699103000388  0.7112382647929114  1.0000
  Sb  Sb7       1.0  0.4910071212899821  0.48670513236536994  0.18301643786100089  1.0000
  Sb  Sb8       1.0  0.02776259922809357  0.9174280196232603  0.8889584015845554  1.0000
  Sb  Sb9       1.0  0.5416047860279469  0.1158224497971785  0.1532859425311378  1.0000
  Sb  Sb10      1.0  0.36042850417698846  0.8312106966845756  0.7730373882222058  1.0000
  O   O1        1.0  0.8220095941838075  0.06861262780603788  0.17729083034908438  1.0000
  O   O2        1.0  0.6167526764319178  0.33675954873671354  0.7095423911626523  1.0000
data_image158
_chemical_formula_structural       Eu10Cd4Sb10O2
_chemical_formula_sum              "Eu10 Cd4 Sb10 O2"
_cell_length_a       11.24426501306804
_cell_length_b       11.24426501306804
_cell_length_c       14.850709
_cell_angle_alpha    90.0
_cell_angle_beta     90.0
_cell_angle_gamma    155.89846091665316

_space_group_name_H-M_alt    "P 1"
_space_group_IT_number       1

loop_
  _space_group_symop_operation_xyz
  'x, y, z'

loop_
  _atom_site_type_symbol
  _atom_site_label
  _atom_site_symmetry_multiplicity
  _atom_site_fract_x
  _atom_site_fract_y
  _atom_site_fract_z
  _atom_site_occupancy
  Eu  Eu1       1.0  0.7616746374503256  0.38206281163737127  0.8521228706467534  1.0000
  Eu  Eu2       1.0  0.14003440152956156  0.5058346474101699  0.14509791509317463  1.0000
  Eu  Eu3       1.0  0.7711015202924095  0.3313658270578797  0.6003117736780237  1.0000
  Eu  Eu4       1.0  0.3556393040276819  0.7973916192427681  0.3711533873526343  1.0000
  Eu  Eu5       1.0  0.9503059401741946  0.07501711961344305  0.31333144814539565  1.0000
  Eu  Eu6       1.0  0.12174602598437798  0.9053969873007742  0.6953298543047509  1.0000
  Eu  Eu7       1.0  0.136977054500534  0.9134930257292949  0.23456650592412595  1.0000
  Eu  Eu8       1.0  0.9581323963941452  0.12930491065135832  0.7742743211734769  1.0000
  Eu  Eu9       1.0  0.8434084496007461  0.9092996954247912  0.5337180719988823  1.0000
  Eu  Eu10      1.0  0.9280311649568382  0.06122123674839556  0.049843792024644465  1.0000
  Cd  Cd1       1.0  0.7043839815049066  0.3419014782149623  0.35556233113565155  1.0000
  Cd  Cd2       1.0  0.3586973155727722  0.6552727815812627  0.6115364277932052  1.0000
  Cd  Cd3       1.0  0.5425720560670523  0.38549564158221633  0.031119304561057364  1.0000
  Cd  Cd4       1.0  0.6740702412067998  0.0681043038287612  0.9428115787842754  1.0000
  Sb  Sb1       1.0  0.8634665792292664  0.18739023637028096  0.48696949894364094  1.0000
  Sb  Sb2       1.0  0.17583861859466782  0.8686236675683046  0.4707452015275506  1.0000
  Sb  Sb3       1.0  0.40060944405644694  0.5624696724696254  0.9072088374967674  1.0000
  Sb  Sb4       1.0  0.1811139957386969  0.87012236056348  0.9952244705644983  1.0000
  Sb  Sb5       1.0  0.4375643041232213  0.40894870763998536  0.3891632882668519  1.0000
  Sb  Sb6       1.0  0.47236560098117675  0.49623697973276704  0.7143357881020433  1.0000
  Sb  Sb7       1.0  0.4798464884143677  0.4848175766759103  0.20328572067013576  1.0000
  Sb  Sb8       1.0  0.9628523597023544  0.8685405345912675  0.9023961495498992  1.0000
  Sb  Sb9       1.0  0.5692737370441401  0.16054844110206914  0.15866971347916514  1.0000
  Sb  Sb10      1.0  0.3593215657792365  0.7830693977287604  0.7641768507376643  1.0000
  O   O1        1.0  0.6934647350949553  0.9850374093991143  0.12722043677414813  1.0000
  O   O2        1.0  0.628606190114436  0.32901665021027926  0.7067857955874737  1.0000
data_image159
_chemical_formula_structural       Eu10Cd4Sb10O2
_chemical_formula_sum              "Eu10 Cd4 Sb10 O2"
_cell_length_a       11.24426501306804
_cell_length_b       11.24426501306804
_cell_length_c       14.850709
_cell_angle_alpha    90.0
_cell_angle_beta     90.0
_cell_angle_gamma    155.89846091665316

_space_group_name_H-M_alt    "P 1"
_space_group_IT_number       1

loop_
  _space_group_symop_operation_xyz
  'x, y, z'

loop_
  _atom_site_type_symbol
  _atom_site_label
  _atom_site_symmetry_multiplicity
  _atom_site_fract_x
  _atom_site_fract_y
  _atom_site_fract_z
  _atom_site_occupancy
  Eu  Eu1       1.0  0.7665376865304331  0.3589410575834817  0.8451137833271909  1.0000
  Eu  Eu2       1.0  0.17195022509741534  0.5358927241523185  0.11406681715487309  1.0000
  Eu  Eu3       1.0  0.7131072191045099  0.2736536859574865  0.5795257067354979  1.0000
  Eu  Eu4       1.0  0.2615264796588075  0.697208716364493  0.3586825932822017  1.0000
  Eu  Eu5       1.0  0.8853624656539917  0.05355175258103948  0.31975793462027513  1.0000
  Eu  Eu6       1.0  0.13264645292675104  0.962218976337521  0.7021374624514151  1.0000
  Eu  Eu7       1.0  0.05516891637788728  0.8749967466050104  0.22839695099882745  1.0000
  Eu  Eu8       1.0  0.9536097439796359  0.13156410615767697  0.7971721374166837  1.0000
  Eu  Eu9       1.0  0.8947902801854231  0.8988473380116672  0.5303076285207703  1.0000
  Eu  Eu10      1.0  0.9864587579091729  0.09359194366146716  0.07432435438762011  1.0000
  Cd  Cd1       1.0  0.7095482561314932  0.3827444068897891  0.34133823900572346  1.0000
  Cd  Cd2       1.0  0.33819098993625274  0.6075738740082967  0.6146972348868737  1.0000
  Cd  Cd3       1.0  0.6012760903040275  0.4531467767206197  0.028079479238506674  1.0000
  Cd  Cd4       1.0  0.6610472703895046  0.0589590100183659  0.9463988489404754  1.0000
  Sb  Sb1       1.0  0.8220269572476376  0.1338063860163681  0.4801714388543854  1.0000
  Sb  Sb2       1.0  0.09681835603385396  0.8030000489778781  0.485830185105511  1.0000
  Sb  Sb3       1.0  0.49885274705316673  0.6393593159176866  0.9459717031787693  1.0000
  Sb  Sb4       1.0  0.23301690502278166  0.913151851757743  0.0032274722991745275  1.0000
  Sb  Sb5       1.0  0.4070110820859377  0.3681086044734564  0.3962061625503245  1.0000
  Sb  Sb6       1.0  0.535243707374522  0.5541719685719719  0.6815341615597985  1.0000
  Sb  Sb7       1.0  0.5520925160219982  0.549643762732073  0.1962858032076711  1.0000
  Sb  Sb8       1.0  0.9624757622470239  0.9112801762200324  0.8961860322887171  1.0000
  Sb  Sb9       1.0  0.6500385979768262  0.19655935062477894  0.1647286371436698  1.0000
  Sb  Sb10      1.0  0.2937932719422892  0.7396667140266252  0.768216086767694  1.0000
  O   O1        1.0  0.8243945506802262  0.07938038364141049  0.1852891684989708  1.0000
  O   O2        1.0  0.54125840975035  0.2035442285943976  0.7083247636233577  1.0000
data_image160
_chemical_formula_structural       Eu10Cd4Sb10O2
_chemical_formula_sum              "Eu10 Cd4 Sb10 O2"
_cell_length_a       11.24426501306804
_cell_length_b       11.24426501306804
_cell_length_c       14.850709
_cell_angle_alpha    90.0
_cell_angle_beta     90.0
_cell_angle_gamma    155.89846091665316

_space_group_name_H-M_alt    "P 1"
_space_group_IT_number       1

loop_
  _space_group_symop_operation_xyz
  'x, y, z'

loop_
  _atom_site_type_symbol
  _atom_site_label
  _atom_site_symmetry_multiplicity
  _atom_site_fract_x
  _atom_site_fract_y
  _atom_site_fract_z
  _atom_site_occupancy
  Eu  Eu1       1.0  0.7274805963347831  0.36056176710205884  0.8213171108257631  1.0000
  Eu  Eu2       1.0  0.24431769388340616  0.6030000148123962  0.11626529913756843  1.0000
  Eu  Eu3       1.0  0.6941873162768609  0.2637039502106023  0.6043768956216995  1.0000
  Eu  Eu4       1.0  0.2219312892821799  0.6337380778551676  0.3595057392308071  1.0000
  Eu  Eu5       1.0  0.8387259046456728  0.027325623389757244  0.3223331664469709  1.0000
  Eu  Eu6       1.0  0.144016975320805  0.978975480153383  0.7019602734774253  1.0000
  Eu  Eu7       1.0  0.05598351121462767  0.865662133426802  0.23325468433356383  1.0000
  Eu  Eu8       1.0  0.003535387808441426  0.1801718431351002  0.7847239127179934  1.0000
  Eu  Eu9       1.0  0.9684262787399639  0.9462705520543276  0.5213241906973138  1.0000
  Eu  Eu10      1.0  0.040426886240414614  0.12084871891714503  0.07971759235439822  1.0000
  Cd  Cd1       1.0  0.5545774884788491  0.2266389504709157  0.35480194234192647  1.0000
  Cd  Cd2       1.0  0.3020355574044314  0.5613401323364187  0.607112685024987  1.0000
  Cd  Cd3       1.0  0.5685050544763661  0.4467540672038064  0.004679399767499108  1.0000
  Cd  Cd4       1.0  0.6358952040983227  0.038706459170598784  0.9431218757189227  1.0000
  Sb  Sb1       1.0  0.7556845854800496  0.07416881153852493  0.513750840809357  1.0000
  Sb  Sb2       1.0  0.058473907562374694  0.7742302444728946  0.4828683382001458  1.0000
  Sb  Sb3       1.0  0.5044147185063348  0.6813754328610334  0.9502155034297787  1.0000
  Sb  Sb4       1.0  0.28687651122967917  0.9690236816166651  0.9804633187267235  1.0000
  Sb  Sb5       1.0  0.45693856636540714  0.4361888631141108  0.39142678166622114  1.0000
  Sb  Sb6       1.0  0.5161386045520587  0.5450206090425873  0.6767478180679741  1.0000
  Sb  Sb7       1.0  0.5033166037349309  0.48106384143356007  0.21125563365463412  1.0000
  Sb  Sb8       1.0  0.054258962015234134  0.9730511062024598  0.9013345993267964  1.0000
  Sb  Sb9       1.0  0.5499959664715753  0.0961864559970133  0.1708044433006889  1.0000
  Sb  Sb10      1.0  0.4048860465333879  0.8107835235518777  0.7663072430558326  1.0000
  O   O1        1.0  0.9048444677214238  0.1685684647324263  0.16637658828258176  1.0000
  O   O2        1.0  0.7792261883284324  0.5107218917260076  0.7085888333363759  1.0000
data_image161
_chemical_formula_structural       Eu10Cd4Sb10O2
_chemical_formula_sum              "Eu10 Cd4 Sb10 O2"
_cell_length_a       11.24426501306804
_cell_length_b       11.24426501306804
_cell_length_c       14.850709
_cell_angle_alpha    90.0
_cell_angle_beta     90.0
_cell_angle_gamma    155.89846091665316

_space_group_name_H-M_alt    "P 1"
_space_group_IT_number       1

loop_
  _space_group_symop_operation_xyz
  'x, y, z'

loop_
  _atom_site_type_symbol
  _atom_site_label
  _atom_site_symmetry_multiplicity
  _atom_site_fract_x
  _atom_site_fract_y
  _atom_site_fract_z
  _atom_site_occupancy
  Eu  Eu1       1.0  0.7221398872191933  0.38109081686442114  0.8390694975685246  1.0000
  Eu  Eu2       1.0  0.28860512133195837  0.6349317601736559  0.12592085447766144  1.0000
  Eu  Eu3       1.0  0.6787388524489162  0.25215487477647297  0.6050996121972162  1.0000
  Eu  Eu4       1.0  0.23699098849013844  0.6747348875748566  0.3497566292563547  1.0000
  Eu  Eu5       1.0  0.7794488989313146  0.9586719883083503  0.32867299816765855  1.0000
  Eu  Eu6       1.0  0.09010741127023944  0.9217026924305189  0.702330772969578  1.0000
  Eu  Eu7       1.0  0.033133087204959756  0.8119485902134022  0.23798098969864256  1.0000
  Eu  Eu8       1.0  0.0386642273536324  0.2051081435222501  0.8086085545216133  1.0000
  Eu  Eu9       1.0  0.9561928005222174  0.9313197865241918  0.4914514904534758  1.0000
  Eu  Eu10      1.0  0.03603947879510499  0.1257867148475668  0.06722068713967706  1.0000
  Cd  Cd1       1.0  0.5147181432811851  0.18930117390668363  0.3769995123984494  1.0000
  Cd  Cd2       1.0  0.35762105445784703  0.6163061776391701  0.5862337049422514  1.0000
  Cd  Cd3       1.0  0.6530823506824261  0.5119525309120802  0.018361566392285346  1.0000
  Cd  Cd4       1.0  0.6942665887716899  0.10780026125538633  0.9474444627412391  1.0000
  Sb  Sb1       1.0  0.7753226644024174  0.10559409528016811  0.48559470715795233  1.0000
  Sb  Sb2       1.0  0.058269092321629176  0.7392399949101294  0.48304748713557905  1.0000
  Sb  Sb3       1.0  0.5190456402559658  0.7177236629406093  0.9488917789034701  1.0000
  Sb  Sb4       1.0  0.2417269873014786  0.8855519351231725  0.9745971698870697  1.0000
  Sb  Sb5       1.0  0.45258236492688786  0.43202396687550565  0.39596125498820794  1.0000
  Sb  Sb6       1.0  0.44982658744731374  0.4857674156156546  0.6751156741432459  1.0000
  Sb  Sb7       1.0  0.5552164851010067  0.5348584728795971  0.2111576625023687  1.0000
  Sb  Sb8       1.0  0.12411352689022756  0.028763913335309765  0.8940091163675558  1.0000
  Sb  Sb9       1.0  0.48601844782832143  0.06995456895723202  0.18402865061088164  1.0000
  Sb  Sb10      1.0  0.3681751503573713  0.7923524481132729  0.7578197125307758  1.0000
  O   O1        1.0  0.1279141539397583  0.34835819612521285  0.19285699984762866  1.0000
  O   O2        1.0  0.6538738411626749  0.4138223228916525  0.7049673073871588  1.0000
data_image162
_chemical_formula_structural       Eu10Cd4Sb10O2
_chemical_formula_sum              "Eu10 Cd4 Sb10 O2"
_cell_length_a       11.24426501306804
_cell_length_b       11.24426501306804
_cell_length_c       14.850709
_cell_angle_alpha    90.0
_cell_angle_beta     90.0
_cell_angle_gamma    155.89846091665316

_space_group_name_H-M_alt    "P 1"
_space_group_IT_number       1

loop_
  _space_group_symop_operation_xyz
  'x, y, z'

loop_
  _atom_site_type_symbol
  _atom_site_label
  _atom_site_symmetry_multiplicity
  _atom_site_fract_x
  _atom_site_fract_y
  _atom_site_fract_z
  _atom_site_occupancy
  Eu  Eu1       1.0  0.7665361775346083  0.4483302422059129  0.8649790018454123  1.0000
  Eu  Eu2       1.0  0.3547585577706806  0.6685702291523598  0.144711257791587  1.0000
  Eu  Eu3       1.0  0.6514619594330647  0.20955065674609882  0.5983180651406954  1.0000
  Eu  Eu4       1.0  0.19096879120213955  0.6395296446635513  0.35253707260135186  1.0000
  Eu  Eu5       1.0  0.865890087295134  0.016662345017867917  0.2970579844341976  1.0000
  Eu  Eu6       1.0  0.06998644382776792  0.8871051661298187  0.7189222840869076  1.0000
  Eu  Eu7       1.0  0.028656018823572334  0.8113324637074364  0.21658341918962948  1.0000
  Eu  Eu8       1.0  0.9851619280333425  0.17166052135656779  0.8058249794506741  1.0000
  Eu  Eu9       1.0  0.9412800453566654  0.9334819803775145  0.5235138068175131  1.0000
  Eu  Eu10      1.0  0.06380774329066238  0.14667853174632672  0.07180501308410163  1.0000
  Cd  Cd1       1.0  0.5324314920057356  0.24534211141513104  0.37609079851449956  1.0000
  Cd  Cd2       1.0  0.3047149167905999  0.5702395168904643  0.5588014742250613  1.0000
  Cd  Cd3       1.0  0.7377477836512915  0.5791119044637317  0.03029726230031762  1.0000
  Cd  Cd4       1.0  0.6877999586267927  0.10783145142441852  0.9395012902192305  1.0000
  Sb  Sb1       1.0  0.7997723177417666  0.146606496744954  0.4631330246259493  1.0000
  Sb  Sb2       1.0  0.02625829848026896  0.6882391607065781  0.5030568297852913  1.0000
  Sb  Sb3       1.0  0.5023189674675423  0.6886289401053567  0.9526673333030659  1.0000
  Sb  Sb4       1.0  0.29024170548449796  0.9302652398412518  0.9772695250708558  1.0000
  Sb  Sb5       1.0  0.42686146222790833  0.4255862306700335  0.36830099064254257  1.0000
  Sb  Sb6       1.0  0.45202548081587807  0.48786297098432013  0.678082656032714  1.0000
  Sb  Sb7       1.0  0.4991857772304931  0.4594393417238912  0.17100833826919776  1.0000
  Sb  Sb8       1.0  0.17840809141563535  0.10135289191984584  0.9075961619164263  1.0000
  Sb  Sb9       1.0  0.6208043395424255  0.16524659664281385  0.2019873432791391  1.0000
  Sb  Sb10      1.0  0.16374219552332583  0.6282723808684988  0.7659091572148702  1.0000
  O   O1        1.0  0.8028319424118425  0.044545742225964406  0.1572067335893817  1.0000
  O   O2        1.0  0.6404971661141479  0.34862816187785084  0.7213551457989473  1.0000
data_image163
_chemical_formula_structural       Eu10Cd4Sb10O2
_chemical_formula_sum              "Eu10 Cd4 Sb10 O2"
_cell_length_a       11.24426501306804
_cell_length_b       11.24426501306804
_cell_length_c       14.850709
_cell_angle_alpha    90.0
_cell_angle_beta     90.0
_cell_angle_gamma    155.89846091665316

_space_group_name_H-M_alt    "P 1"
_space_group_IT_number       1

loop_
  _space_group_symop_operation_xyz
  'x, y, z'

loop_
  _atom_site_type_symbol
  _atom_site_label
  _atom_site_symmetry_multiplicity
  _atom_site_fract_x
  _atom_site_fract_y
  _atom_site_fract_z
  _atom_site_occupancy
  Eu  Eu1       1.0  0.7462350048872212  0.4510366045619411  0.844034034886795  1.0000
  Eu  Eu2       1.0  0.34770743878963695  0.6784307014207321  0.12903890479335786  1.0000
  Eu  Eu3       1.0  0.5828966270205929  0.16412407773249058  0.616015880916328  1.0000
  Eu  Eu4       1.0  0.1896649301744688  0.6186789858908215  0.36679967010335723  1.0000
  Eu  Eu5       1.0  0.8991022961190435  0.03734979072211021  0.3155027812305312  1.0000
  Eu  Eu6       1.0  0.0367892069579486  0.8596044693649623  0.6882315925751392  1.0000
  Eu  Eu7       1.0  0.11539957040251092  0.8669784248541524  0.18631372264606888  1.0000
  Eu  Eu8       1.0  0.9883290133132197  0.17828967308417182  0.7760891934543689  1.0000
  Eu  Eu9       1.0  0.9595857361058933  0.9647131062109995  0.5419161233579416  1.0000
  Eu  Eu10      1.0  0.9639729356745658  0.03588676311434526  0.06501535539432335  1.0000
  Cd  Cd1       1.0  0.5316756320284323  0.2284761699831299  0.37551021931213013  1.0000
  Cd  Cd2       1.0  0.2957954025357086  0.5657983315144306  0.5606359096233995  1.0000
  Cd  Cd3       1.0  0.7408632258386226  0.5543149423520701  0.013111534813666845  1.0000
  Cd  Cd4       1.0  0.6639638510047358  0.09595787661346145  0.9114939237680922  1.0000
  Sb  Sb1       1.0  0.7705780727285876  0.09725423913879595  0.48898165663137005  1.0000
  Sb  Sb2       1.0  0.013761288419557536  0.7316777342454879  0.4826852650432318  1.0000
  Sb  Sb3       1.0  0.49464401120643964  0.6882141906809554  0.9259896492234095  1.0000
  Sb  Sb4       1.0  0.2964663567958097  0.9267259105561985  0.01783297710888898  1.0000
  Sb  Sb5       1.0  0.43887493633208674  0.4319561198004038  0.39863862495515473  1.0000
  Sb  Sb6       1.0  0.4818708642909947  0.5260561143507558  0.6908217757856968  1.0000
  Sb  Sb7       1.0  0.49437584897601017  0.440861324774105  0.20806772694574552  1.0000
  Sb  Sb8       1.0  0.3227955558752408  0.2405992514470223  0.8949576006567619  1.0000
  Sb  Sb9       1.0  0.6797839695970204  0.1988392846745188  0.2326419240161415  1.0000
  Sb  Sb10      1.0  0.09750560182156603  0.5743678321960198  0.7724464078786972  1.0000
  O   O1        1.0  0.9192128082380933  0.1753531092391664  0.1574156539421395  1.0000
  O   O2        1.0  0.5706054770051731  0.3166622816550878  0.715011063558884  1.0000
data_image164
_chemical_formula_structural       Eu10Cd4Sb10O2
_chemical_formula_sum              "Eu10 Cd4 Sb10 O2"
_cell_length_a       11.24426501306804
_cell_length_b       11.24426501306804
_cell_length_c       14.850709
_cell_angle_alpha    90.0
_cell_angle_beta     90.0
_cell_angle_gamma    155.89846091665316

_space_group_name_H-M_alt    "P 1"
_space_group_IT_number       1

loop_
  _space_group_symop_operation_xyz
  'x, y, z'

loop_
  _atom_site_type_symbol
  _atom_site_label
  _atom_site_symmetry_multiplicity
  _atom_site_fract_x
  _atom_site_fract_y
  _atom_site_fract_z
  _atom_site_occupancy
  Eu  Eu1       1.0  0.654200843383272  0.32238872143001596  0.8456930317255942  1.0000
  Eu  Eu2       1.0  0.346425634511759  0.7002241488005833  0.11720124599408277  1.0000
  Eu  Eu3       1.0  0.5916273162121415  0.14933785406933145  0.6377096861067957  1.0000
  Eu  Eu4       1.0  0.17756052809307585  0.6124918235046807  0.33862021782805835  1.0000
  Eu  Eu5       1.0  0.8023710197215995  0.9575478644096005  0.33949383091857316  1.0000
  Eu  Eu6       1.0  0.02219757560130009  0.867011368194583  0.648718119742444  1.0000
  Eu  Eu7       1.0  0.19725400774254134  0.9174287930168147  0.18385463325090434  1.0000
  Eu  Eu8       1.0  0.947558220843119  0.13851984949051938  0.7766138055566089  1.0000
  Eu  Eu9       1.0  0.949579731544296  0.9791881903477818  0.540192244684811  1.0000
  Eu  Eu10      1.0  0.9856249542423652  0.047299985265231326  0.07278869352332186  1.0000
  Cd  Cd1       1.0  0.6008515176216471  0.314745342269943  0.39788021443750526  1.0000
  Cd  Cd2       1.0  0.29142142293375206  0.5826765816441193  0.5868978261638463  1.0000
  Cd  Cd3       1.0  0.7415231771028202  0.5232112889258216  0.05216020940972642  1.0000
  Cd  Cd4       1.0  0.6873339279135503  0.11083644731270259  0.892531071207741  1.0000
  Sb  Sb1       1.0  0.7629598563468593  0.09557990460920708  0.4836044806755817  1.0000
  Sb  Sb2       1.0  0.11143869479970314  0.8021811074790577  0.4964052953057595  1.0000
  Sb  Sb3       1.0  0.39941815156308813  0.6195245055202315  0.9270521508654624  1.0000
  Sb  Sb4       1.0  0.33274810326473514  0.904120736271893  0.9924307316460754  1.0000
  Sb  Sb5       1.0  0.4752316988230741  0.4567504130550863  0.39955141136274386  1.0000
  Sb  Sb6       1.0  0.48151316028201135  0.5638298739362114  0.6595594610319371  1.0000
  Sb  Sb7       1.0  0.4729285291335292  0.3955017451096861  0.20434945540144822  1.0000
  Sb  Sb8       1.0  0.3505339545148854  0.3100216563191452  0.8981741202133476  1.0000
  Sb  Sb9       1.0  0.6716616895995402  0.21307612563105538  0.2525130005995394  1.0000
  Sb  Sb10      1.0  0.13586993895604682  0.6172170542019965  0.7732280430976369  1.0000
  O   O1        1.0  0.9136839278970934  0.1428939727669981  0.16811453557522474  1.0000
  O   O2        1.0  0.6178931556199361  0.3600956928708829  0.6897329184299016  1.0000
data_image165
_chemical_formula_structural       Eu10Cd4Sb10O2
_chemical_formula_sum              "Eu10 Cd4 Sb10 O2"
_cell_length_a       11.24426501306804
_cell_length_b       11.24426501306804
_cell_length_c       14.850709
_cell_angle_alpha    90.0
_cell_angle_beta     90.0
_cell_angle_gamma    155.89846091665316

_space_group_name_H-M_alt    "P 1"
_space_group_IT_number       1

loop_
  _space_group_symop_operation_xyz
  'x, y, z'

loop_
  _atom_site_type_symbol
  _atom_site_label
  _atom_site_symmetry_multiplicity
  _atom_site_fract_x
  _atom_site_fract_y
  _atom_site_fract_z
  _atom_site_occupancy
  Eu  Eu1       1.0  0.5898210146119444  0.27930116221824597  0.8422957087513744  1.0000
  Eu  Eu2       1.0  0.37700848673654724  0.7287516515951911  0.11914350168248998  1.0000
  Eu  Eu3       1.0  0.6581967842959067  0.1607415286597775  0.6332152712990995  1.0000
  Eu  Eu4       1.0  0.2231143459918735  0.6525463044601973  0.3503061727680264  1.0000
  Eu  Eu5       1.0  0.7257991254911145  0.8724912396460149  0.31537065616121324  1.0000
  Eu  Eu6       1.0  0.9756389180080681  0.8250335738818846  0.6753897699368938  1.0000
  Eu  Eu7       1.0  0.1501610135737483  0.8690284695489408  0.2124336712497383  1.0000
  Eu  Eu8       1.0  0.9141289520654624  0.0712056001354881  0.7767257409553742  1.0000
  Eu  Eu9       1.0  0.9824778348635581  0.0493682678342289  0.5173096412337767  1.0000
  Eu  Eu10      1.0  0.9875452500755012  0.06426653415257061  0.07678338905918441  1.0000
  Cd  Cd1       1.0  0.7126599739384453  0.46181481847725714  0.40771686346522606  1.0000
  Cd  Cd2       1.0  0.23421357210287436  0.5590304915324124  0.5984750683752064  1.0000
  Cd  Cd3       1.0  0.6815096555571655  0.4622499028989674  0.03931904495516131  1.0000
  Cd  Cd4       1.0  0.7867688110745672  0.15178274539281822  0.8822295952188285  1.0000
  Sb  Sb1       1.0  0.759141644662295  0.10139988529294679  0.45905063446310757  1.0000
  Sb  Sb2       1.0  0.17990887285571155  0.82277065550646  0.5167889510729334  1.0000
  Sb  Sb3       1.0  0.3660686454994071  0.6028166387150887  0.9444389296724659  1.0000
  Sb  Sb4       1.0  0.24803303121718623  0.8152894892684968  0.9832777973506176  1.0000
  Sb  Sb5       1.0  0.35471297833603554  0.3274378423158754  0.3822379142840025  1.0000
  Sb  Sb6       1.0  0.4691284338457846  0.5348462754151198  0.6778644864430718  1.0000
  Sb  Sb7       1.0  0.4737414213430793  0.4400613197929332  0.1961186865275123  1.0000
  Sb  Sb8       1.0  0.39657058347344976  0.3935201318475244  0.9300483367886795  1.0000
  Sb  Sb9       1.0  0.7562254766040722  0.31243738904920243  0.23251559506289132  1.0000
  Sb  Sb10      1.0  0.23364399065642663  0.684234160874342  0.7494785445643642  1.0000
  O   O1        1.0  0.8996963599214947  0.1558852880250483  0.1115268603100127  1.0000
  O   O2        1.0  0.5295492594578683  0.32631324407807855  0.6951730095954411  1.0000
data_image166
_chemical_formula_structural       Eu10Cd4Sb10O2
_chemical_formula_sum              "Eu10 Cd4 Sb10 O2"
_cell_length_a       11.24426501306804
_cell_length_b       11.24426501306804
_cell_length_c       14.850709
_cell_angle_alpha    90.0
_cell_angle_beta     90.0
_cell_angle_gamma    155.89846091665316

_space_group_name_H-M_alt    "P 1"
_space_group_IT_number       1

loop_
  _space_group_symop_operation_xyz
  'x, y, z'

loop_
  _atom_site_type_symbol
  _atom_site_label
  _atom_site_symmetry_multiplicity
  _atom_site_fract_x
  _atom_site_fract_y
  _atom_site_fract_z
  _atom_site_occupancy
  Eu  Eu1       1.0  0.5836536990192799  0.2565488563211903  0.824117084218172  1.0000
  Eu  Eu2       1.0  0.3669292089584703  0.7235128382387135  0.11694260576080945  1.0000
  Eu  Eu3       1.0  0.7448906505983227  0.23750052864601684  0.6199392495157945  1.0000
  Eu  Eu4       1.0  0.23398402283258932  0.6980129325735587  0.3645709946141331  1.0000
  Eu  Eu5       1.0  0.7934221754725365  0.9450259130507355  0.29001138036318297  1.0000
  Eu  Eu6       1.0  0.9357326919453852  0.7693238233214561  0.7072494709273973  1.0000
  Eu  Eu7       1.0  0.15470708210778836  0.9183617326488988  0.21825315495890898  1.0000
  Eu  Eu8       1.0  0.9071475791422671  0.03669409386260101  0.787606890917556  1.0000
  Eu  Eu9       1.0  0.8485488404990527  0.9285152002892474  0.5284554517831993  1.0000
  Eu  Eu10      1.0  0.9061379878443581  0.0410232800562906  0.06006297060446565  1.0000
  Cd  Cd1       1.0  0.766189957940976  0.46987177995941515  0.4010499772808336  1.0000
  Cd  Cd2       1.0  0.34807743941534497  0.5820702541024034  0.5659499421983524  1.0000
  Cd  Cd3       1.0  0.6674375244479456  0.4310729054238991  0.04367234291735049  1.0000
  Cd  Cd4       1.0  0.8349471412426818  0.24497378547375903  0.9036240571965721  1.0000
  Sb  Sb1       1.0  0.7938686574300736  0.1328497738764396  0.46666337047797296  1.0000
  Sb  Sb2       1.0  0.15328061158682138  0.77006957011603  0.5386545131958353  1.0000
  Sb  Sb3       1.0  0.3637701690613584  0.6221135438758065  0.9356732816578939  1.0000
  Sb  Sb4       1.0  0.15150751210192845  0.7534651721658744  0.9850909395957236  1.0000
  Sb  Sb5       1.0  0.2720015872142337  0.2619114056323993  0.36143052097781825  1.0000
  Sb  Sb6       1.0  0.4141277313956683  0.44885010354682153  0.6481265401445832  1.0000
  Sb  Sb7       1.0  0.48496143028121635  0.43908317699882166  0.1927541095558523  1.0000
  Sb  Sb8       1.0  0.48136707980543053  0.48562532763137267  0.9476050702623672  1.0000
  Sb  Sb9       1.0  0.7432355048107782  0.2795088819228175  0.21373554198730407  1.0000
  Sb  Sb10      1.0  0.33058766482590096  0.7803660703049276  0.7749572281488157  1.0000
  O   O1        1.0  0.018389648924780178  0.20823089754385352  0.18332934122754047  1.0000
  O   O2        1.0  0.3738140124830365  0.23704657858551398  0.7826788261232636  1.0000
data_image167
_chemical_formula_structural       Eu10Cd4Sb10O2
_chemical_formula_sum              "Eu10 Cd4 Sb10 O2"
_cell_length_a       11.24426501306804
_cell_length_b       11.24426501306804
_cell_length_c       14.850709
_cell_angle_alpha    90.0
_cell_angle_beta     90.0
_cell_angle_gamma    155.89846091665316

_space_group_name_H-M_alt    "P 1"
_space_group_IT_number       1

loop_
  _space_group_symop_operation_xyz
  'x, y, z'

loop_
  _atom_site_type_symbol
  _atom_site_label
  _atom_site_symmetry_multiplicity
  _atom_site_fract_x
  _atom_site_fract_y
  _atom_site_fract_z
  _atom_site_occupancy
  Eu  Eu1       1.0  0.608106686885095  0.2704648354187529  0.8501823187294667  1.0000
  Eu  Eu2       1.0  0.2855695293763658  0.6659848971186474  0.1116339226385041  1.0000
  Eu  Eu3       1.0  0.6992135268847761  0.20901111743113568  0.6390205385719624  1.0000
  Eu  Eu4       1.0  0.35207371755361333  0.8026258064143175  0.3817254487697014  1.0000
  Eu  Eu5       1.0  0.8494842074657705  0.046451307800486945  0.2917267331958725  1.0000
  Eu  Eu6       1.0  0.9488316937033447  0.7493641126875937  0.7190330693217206  1.0000
  Eu  Eu7       1.0  0.12929721326682303  0.9204431645669567  0.23462239075372354  1.0000
  Eu  Eu8       1.0  0.9008717130736364  0.02889786839261508  0.8043525980367521  1.0000
  Eu  Eu9       1.0  0.8607451659693965  0.9137006614239233  0.5028165808760734  1.0000
  Eu  Eu10      1.0  0.8572688607661548  0.9983453028302847  0.043322847550594006  1.0000
  Cd  Cd1       1.0  0.7589826824388514  0.4231952909455587  0.36860780217291506  1.0000
  Cd  Cd2       1.0  0.30377099681571074  0.555669181314011  0.5558796006848852  1.0000
  Cd  Cd3       1.0  0.645401344265584  0.3735786549809287  0.04516308033206707  1.0000
  Cd  Cd4       1.0  0.8090338188581213  0.23657396807047482  0.9309454219207371  1.0000
  Sb  Sb1       1.0  0.8749401111958705  0.23224841741765073  0.45951819268034416  1.0000
  Sb  Sb2       1.0  0.1362172246843158  0.7772198627248753  0.5512114531242777  1.0000
  Sb  Sb3       1.0  0.38089423102465547  0.6361461571462875  0.9144219669012774  1.0000
  Sb  Sb4       1.0  0.14788825522628118  0.7501784202735341  0.976172498224485  1.0000
  Sb  Sb5       1.0  0.3009047424930048  0.2583709074737353  0.3831578917086823  1.0000
  Sb  Sb6       1.0  0.3105372058716151  0.33012628174265674  0.6375945013511649  1.0000
  Sb  Sb7       1.0  0.5349021469001628  0.5063532058788116  0.153978690832803  1.0000
  Sb  Sb8       1.0  0.4888639281973575  0.46924314817341894  0.9481500723242686  1.0000
  Sb  Sb9       1.0  0.691008054405882  0.24860542777314698  0.21329181356267227  1.0000
  Sb  Sb10      1.0  0.3747526626671755  0.8150804473688028  0.7710442326716134  1.0000
  O   O1        1.0  0.061101701410496714  0.27280735341807266  0.1791415034673533  1.0000
  O   O2        1.0  0.48297474597262996  0.29276318825724124  0.7232509689927255  1.0000
data_image168
_chemical_formula_structural       Eu10Cd4Sb10O2
_chemical_formula_sum              "Eu10 Cd4 Sb10 O2"
_cell_length_a       11.24426501306804
_cell_length_b       11.24426501306804
_cell_length_c       14.850709
_cell_angle_alpha    90.0
_cell_angle_beta     90.0
_cell_angle_gamma    155.89846091665316

_space_group_name_H-M_alt    "P 1"
_space_group_IT_number       1

loop_
  _space_group_symop_operation_xyz
  'x, y, z'

loop_
  _atom_site_type_symbol
  _atom_site_label
  _atom_site_symmetry_multiplicity
  _atom_site_fract_x
  _atom_site_fract_y
  _atom_site_fract_z
  _atom_site_occupancy
  Eu  Eu1       1.0  0.7058775178142683  0.3847475472701888  0.8512039289252433  1.0000
  Eu  Eu2       1.0  0.30287381347887576  0.6977469804693328  0.12387473427341555  1.0000
  Eu  Eu3       1.0  0.682938149543137  0.19903900348238426  0.6249633091169147  1.0000
  Eu  Eu4       1.0  0.40655341112189064  0.8831690438171027  0.38437328427891504  1.0000
  Eu  Eu5       1.0  0.8125953144596039  0.026617483903286256  0.287380376628649  1.0000
  Eu  Eu6       1.0  0.9561734594533248  0.7622679624094818  0.7206273865977764  1.0000
  Eu  Eu7       1.0  0.052425260327373456  0.8355992260178333  0.2296654742570054  1.0000
  Eu  Eu8       1.0  0.8622030182817333  0.015673719737105345  0.8029706747319761  1.0000
  Eu  Eu9       1.0  0.8035495965364211  0.8633172339843184  0.499723434678061  1.0000
  Eu  Eu10      1.0  0.9219804545333351  0.057722421624210846  0.04391926503149683  1.0000
  Cd  Cd1       1.0  0.6492561301973893  0.3203343019974381  0.43489624119627196  1.0000
  Cd  Cd2       1.0  0.39971112861141495  0.6590894423724681  0.582665261549849  1.0000
  Cd  Cd3       1.0  0.6228601309913715  0.3553143539884373  0.08542108088804502  1.0000
  Cd  Cd4       1.0  0.8541111175994032  0.26130729635253447  0.9510557059907961  1.0000
  Sb  Sb1       1.0  0.9447643281688495  0.2938485078215238  0.4576904911968417  1.0000
  Sb  Sb2       1.0  0.11959319568986224  0.788565048783127  0.5443697200164477  1.0000
  Sb  Sb3       1.0  0.35272075971293804  0.6055204976070154  0.9218638526528448  1.0000
  Sb  Sb4       1.0  0.1588029170160804  0.7403581994796588  0.9659955773541454  1.0000
  Sb  Sb5       1.0  0.4670702505534074  0.3758681865249183  0.3670841267697432  1.0000
  Sb  Sb6       1.0  0.32451266281508606  0.3123878460597848  0.644044390106336  1.0000
  Sb  Sb7       1.0  0.5443832771828236  0.5328226973062848  0.12381079948460005  1.0000
  Sb  Sb8       1.0  0.47430147396896494  0.4381176999177001  0.9155458519830708  1.0000
  Sb  Sb9       1.0  0.6703509480959821  0.2264340461470249  0.21427623254826547  1.0000
  Sb  Sb10      1.0  0.1980479576741728  0.6026191444265337  0.7266953299879007  1.0000
  O   O1        1.0  0.7315002898702194  0.01708074853686396  0.15834508060787328  1.0000
  O   O2        1.0  0.47208333788622053  0.1462617949037878  0.7153434229314732  1.0000
data_image169
_chemical_formula_structural       Eu10Cd4Sb10O2
_chemical_formula_sum              "Eu10 Cd4 Sb10 O2"
_cell_length_a       11.24426501306804
_cell_length_b       11.24426501306804
_cell_length_c       14.850709
_cell_angle_alpha    90.0
_cell_angle_beta     90.0
_cell_angle_gamma    155.89846091665316

_space_group_name_H-M_alt    "P 1"
_space_group_IT_number       1

loop_
  _space_group_symop_operation_xyz
  'x, y, z'

loop_
  _atom_site_type_symbol
  _atom_site_label
  _atom_site_symmetry_multiplicity
  _atom_site_fract_x
  _atom_site_fract_y
  _atom_site_fract_z
  _atom_site_occupancy
  Eu  Eu1       1.0  0.7023389140133075  0.3592102921325552  0.8553142149569374  1.0000
  Eu  Eu2       1.0  0.2870781587328812  0.6877710467813413  0.10284641054335622  1.0000
  Eu  Eu3       1.0  0.564170910131198  0.07659254906966079  0.6326813151451249  1.0000
  Eu  Eu4       1.0  0.33434076245409383  0.8418323061214005  0.38322483107767313  1.0000
  Eu  Eu5       1.0  0.7848989790218993  0.9462626073914376  0.2624811206477728  1.0000
  Eu  Eu6       1.0  0.9726224482555494  0.8086726044056417  0.7097187026163261  1.0000
  Eu  Eu7       1.0  0.04519051066570162  0.8713165451991987  0.23237248013321665  1.0000
  Eu  Eu8       1.0  0.7963865121552108  0.9472927597785528  0.7622299249565891  1.0000
  Eu  Eu9       1.0  0.8275258744940135  0.9249585934378212  0.5064604347894641  1.0000
  Eu  Eu10      1.0  0.9590594508206312  0.08227256081047869  0.019822734238842794  1.0000
  Cd  Cd1       1.0  0.5791325356490901  0.3268210454998288  0.5054815909427449  1.0000
  Cd  Cd2       1.0  0.434175869870935  0.6818947455603378  0.6113374154153735  1.0000
  Cd  Cd3       1.0  0.5580008717556377  0.26899070984102436  0.10914092324125914  1.0000
  Cd  Cd4       1.0  0.8555132728339301  0.28353617999561553  0.9478021192350757  1.0000
  Sb  Sb1       1.0  0.9955307087434397  0.34266395011293527  0.4734061795827215  1.0000
  Sb  Sb2       1.0  0.09123634213209467  0.7748830254950717  0.5235345332691486  1.0000
  Sb  Sb3       1.0  0.44966584507075247  0.7039081002337909  0.9176994779806297  1.0000
  Sb  Sb4       1.0  0.3260780847628096  0.9164136922123702  0.9920495673140439  1.0000
  Sb  Sb5       1.0  0.5485147289023846  0.46540158156363304  0.3624513442401732  1.0000
  Sb  Sb6       1.0  0.3908989281013831  0.3648293284102514  0.6426647240546426  1.0000
  Sb  Sb7       1.0  0.4811028692095504  0.4292451881019604  0.1045269731550976  1.0000
  Sb  Sb8       1.0  0.5014818070117137  0.4216395904977725  0.908706165620295  1.0000
  Sb  Sb9       1.0  0.744341254987154  0.25665118343425175  0.22348380909301277  1.0000
  Sb  Sb10      1.0  0.07114940584063627  0.4655313387574554  0.7570551189044235  1.0000
  O   O1        1.0  0.7672921712340249  0.0029159311155163106  0.11455165234422446  1.0000
  O   O2        1.0  0.7173671573592292  0.39320106609593547  0.6963449570858162  1.0000
data_image170
_chemical_formula_structural       Eu10Cd4Sb10O2
_chemical_formula_sum              "Eu10 Cd4 Sb10 O2"
_cell_length_a       11.24426501306804
_cell_length_b       11.24426501306804
_cell_length_c       14.850709
_cell_angle_alpha    90.0
_cell_angle_beta     90.0
_cell_angle_gamma    155.89846091665316

_space_group_name_H-M_alt    "P 1"
_space_group_IT_number       1

loop_
  _space_group_symop_operation_xyz
  'x, y, z'

loop_
  _atom_site_type_symbol
  _atom_site_label
  _atom_site_symmetry_multiplicity
  _atom_site_fract_x
  _atom_site_fract_y
  _atom_site_fract_z
  _atom_site_occupancy
  Eu  Eu1       1.0  0.7474860960080509  0.41442818474148124  0.8421008320447742  1.0000
  Eu  Eu2       1.0  0.3264620144990378  0.7092920073290818  0.10228558085525923  1.0000
  Eu  Eu3       1.0  0.48015592335586327  0.9810380335996581  0.6448902182894113  1.0000
  Eu  Eu4       1.0  0.4039919582058735  0.9016271981471972  0.3916111980522519  1.0000
  Eu  Eu5       1.0  0.7948869991954521  0.9118085486824884  0.23802166993668103  1.0000
  Eu  Eu6       1.0  0.9612377121972212  0.7725124046171225  0.7061579466675633  1.0000
  Eu  Eu7       1.0  0.05641799961657059  0.9219565503854305  0.2350450074949484  1.0000
  Eu  Eu8       1.0  0.8319631931617183  0.9571323817790985  0.739853593184658  1.0000
  Eu  Eu9       1.0  0.9110214046095123  0.005036810689822072  0.48923580131933836  1.0000
  Eu  Eu10      1.0  0.981749348187681  0.09614209346099796  0.008602588643748642  1.0000
  Cd  Cd1       1.0  0.5179015288304033  0.3411990560038623  0.5264762983713858  1.0000
  Cd  Cd2       1.0  0.36273375153544407  0.6123314383319041  0.6199633011690889  1.0000
  Cd  Cd3       1.0  0.6036414544519163  0.2782197204913942  0.13208287189745868  1.0000
  Cd  Cd4       1.0  0.8733653752677011  0.3189610216797596  0.9580767752324643  1.0000
  Sb  Sb1       1.0  0.9869510030989543  0.3222683481140797  0.4980189824502926  1.0000
  Sb  Sb2       1.0  0.11438493712419986  0.787826709922351  0.5257554406886283  1.0000
  Sb  Sb3       1.0  0.44692753031395593  0.7015813780520092  0.9165431547689111  1.0000
  Sb  Sb4       1.0  0.21798712267582254  0.8572004568499356  0.965986512353361  1.0000
  Sb  Sb5       1.0  0.3786497287957115  0.3464872293127628  0.3666417218289564  1.0000
  Sb  Sb6       1.0  0.3757941645542722  0.39146282555306794  0.6410944123246973  1.0000
  Sb  Sb7       1.0  0.5268211858659397  0.46250833226860555  0.09042809306473079  1.0000
  Sb  Sb8       1.0  0.40887544187296104  0.36179703923288975  0.8927325401132813  1.0000
  Sb  Sb9       1.0  0.8686930459542785  0.33506136520117014  0.24639030855928465  1.0000
  Sb  Sb10      1.0  0.09169893373124931  0.4552952371981449  0.7868375432343366  1.0000
  O   O1        1.0  0.690115623960003  0.9213792525123384  0.12833081644105263  1.0000
  O   O2        1.0  0.548762525328941  0.25778509269372524  0.7097854000280852  1.0000
data_image171
_chemical_formula_structural       Eu10Cd4Sb10O2
_chemical_formula_sum              "Eu10 Cd4 Sb10 O2"
_cell_length_a       11.24426501306804
_cell_length_b       11.24426501306804
_cell_length_c       14.850709
_cell_angle_alpha    90.0
_cell_angle_beta     90.0
_cell_angle_gamma    155.89846091665316

_space_group_name_H-M_alt    "P 1"
_space_group_IT_number       1

loop_
  _space_group_symop_operation_xyz
  'x, y, z'

loop_
  _atom_site_type_symbol
  _atom_site_label
  _atom_site_symmetry_multiplicity
  _atom_site_fract_x
  _atom_site_fract_y
  _atom_site_fract_z
  _atom_site_occupancy
  Eu  Eu1       1.0  0.6710100039490816  0.37115419300928343  0.8328738743357798  1.0000
  Eu  Eu2       1.0  0.3741549563005048  0.7456673913101284  0.1351603410474529  1.0000
  Eu  Eu3       1.0  0.6048315851528774  0.08990403850928645  0.6570370087053893  1.0000
  Eu  Eu4       1.0  0.45547919569384254  0.969897655042987  0.39367040901426337  1.0000
  Eu  Eu5       1.0  0.7817669479701334  0.9146603949024505  0.23353582463652067  1.0000
  Eu  Eu6       1.0  0.020865830261909683  0.822351077281427  0.7121772924847547  1.0000
  Eu  Eu7       1.0  0.03551346964826879  0.9116793221003029  0.23735847153946674  1.0000
  Eu  Eu8       1.0  0.8901828426195736  0.006215215254994674  0.7553890087844847  1.0000
  Eu  Eu9       1.0  0.8020294464495746  0.8705920552728987  0.46713792046237934  1.0000
  Eu  Eu10      1.0  0.0011417605589243386  0.08290183211610327  0.01722074362514047  1.0000
  Cd  Cd1       1.0  0.4198400136410527  0.2518839883666367  0.5001013500089636  1.0000
  Cd  Cd2       1.0  0.32258419074127  0.6149675027861821  0.59728363563189  1.0000
  Cd  Cd3       1.0  0.6441609409711325  0.28960787444654434  0.12183251352965953  1.0000
  Cd  Cd4       1.0  0.8678661151115488  0.31090732874658045  0.9803094910561828  1.0000
  Sb  Sb1       1.0  0.9129574425889118  0.295492488429982  0.4886578400939057  1.0000
  Sb  Sb2       1.0  0.987436323195127  0.6756323638226751  0.5217455996042274  1.0000
  Sb  Sb3       1.0  0.5058828000064692  0.7601424974940546  0.9018084947880918  1.0000
  Sb  Sb4       1.0  0.2911433619303303  0.893778843599698  0.9653130841108429  1.0000
  Sb  Sb5       1.0  0.3712693189002832  0.3862797237753198  0.3600035597459188  1.0000
  Sb  Sb6       1.0  0.46446381379926194  0.4856251137405655  0.6420923270988637  1.0000
  Sb  Sb7       1.0  0.518756013247696  0.4469734659309051  0.11575883961462277  1.0000
  Sb  Sb8       1.0  0.3322795706853569  0.251354469410135  0.8700888244310715  1.0000
  Sb  Sb9       1.0  0.9140334498377531  0.37274174566025375  0.2625443137589165  1.0000
  Sb  Sb10      1.0  0.047624021262105624  0.4059316037630021  0.7802925988963562  1.0000
  O   O1        1.0  0.8198317824569064  0.059944527040796905  0.11427043891151667  1.0000
  O   O2        1.0  0.34960085681495  0.9881521410887891  0.7386176675488615  1.0000
data_image172
_chemical_formula_structural       Eu10Cd4Sb10O2
_chemical_formula_sum              "Eu10 Cd4 Sb10 O2"
_cell_length_a       11.24426501306804
_cell_length_b       11.24426501306804
_cell_length_c       14.850709
_cell_angle_alpha    90.0
_cell_angle_beta     90.0
_cell_angle_gamma    155.89846091665316

_space_group_name_H-M_alt    "P 1"
_space_group_IT_number       1

loop_
  _space_group_symop_operation_xyz
  'x, y, z'

loop_
  _atom_site_type_symbol
  _atom_site_label
  _atom_site_symmetry_multiplicity
  _atom_site_fract_x
  _atom_site_fract_y
  _atom_site_fract_z
  _atom_site_occupancy
  Eu  Eu1       1.0  0.6484444012778475  0.32420858801581537  0.8133543347576976  1.0000
  Eu  Eu2       1.0  0.39609375433315125  0.7274360082704668  0.13628250270063172  1.0000
  Eu  Eu3       1.0  0.6249401327409534  0.1319495284740585  0.6552974047905563  1.0000
  Eu  Eu4       1.0  0.37711958992965433  0.942877550560043  0.37707443840235444  1.0000
  Eu  Eu5       1.0  0.8698920546440835  0.048658562234522265  0.2644511697783567  1.0000
  Eu  Eu6       1.0  0.11170930149677462  0.8849641855130491  0.6838446740163909  1.0000
  Eu  Eu7       1.0  0.9811608978039377  0.8219848472260746  0.24862529131245842  1.0000
  Eu  Eu8       1.0  0.942779844813775  0.06666183057243323  0.7498038000039249  1.0000
  Eu  Eu9       1.0  0.8158721422596823  0.9075604006729576  0.4907989343140827  1.0000
  Eu  Eu10      1.0  0.9021782932812581  0.9571915400106042  0.9974977941596573  1.0000
  Cd  Cd1       1.0  0.30211239337637935  0.1739824602979204  0.4881343245009613  1.0000
  Cd  Cd2       1.0  0.3118855163039076  0.5648741029777019  0.6070270507039087  1.0000
  Cd  Cd3       1.0  0.6734422629267852  0.3288109508803909  0.1330044525199682  1.0000
  Cd  Cd4       1.0  0.9556434005704064  0.4128472964540739  0.004685477115319747  1.0000
  Sb  Sb1       1.0  0.9501053268980736  0.3019169375264919  0.45854448189286756  1.0000
  Sb  Sb2       1.0  0.8713319652979845  0.5651343494703034  0.5070375328676836  1.0000
  Sb  Sb3       1.0  0.5668683150827847  0.8312869033807189  0.9059853425001085  1.0000
  Sb  Sb4       1.0  0.33822826475519885  0.8977050728424529  0.9826498631284146  1.0000
  Sb  Sb5       1.0  0.39792426529843933  0.4315231474426115  0.3378023427677558  1.0000
  Sb  Sb6       1.0  0.4499652419213633  0.4619121858563746  0.6677972595248245  1.0000
  Sb  Sb7       1.0  0.5479780030979338  0.4740744619516086  0.13221028865124343  1.0000
  Sb  Sb8       1.0  0.28367140696219206  0.23177510056017275  0.8470221728393021  1.0000
  Sb  Sb9       1.0  0.8751178002232072  0.3460183559633901  0.2687074191774244  1.0000
  Sb  Sb10      1.0  0.045155456537482534  0.3997923062785837  0.7976176080110792  1.0000
  O   O1        1.0  0.9388518771111143  0.16314661706843203  0.11054434495055364  1.0000
  O   O2        1.0  0.15277636523401894  0.7729289586696519  0.7651599450407287  1.0000
data_image173
_chemical_formula_structural       Eu10Cd4Sb10O2
_chemical_formula_sum              "Eu10 Cd4 Sb10 O2"
_cell_length_a       11.24426501306804
_cell_length_b       11.24426501306804
_cell_length_c       14.850709
_cell_angle_alpha    90.0
_cell_angle_beta     90.0
_cell_angle_gamma    155.89846091665316

_space_group_name_H-M_alt    "P 1"
_space_group_IT_number       1

loop_
  _space_group_symop_operation_xyz
  'x, y, z'

loop_
  _atom_site_type_symbol
  _atom_site_label
  _atom_site_symmetry_multiplicity
  _atom_site_fract_x
  _atom_site_fract_y
  _atom_site_fract_z
  _atom_site_occupancy
  Eu  Eu1       1.0  0.6425984376593905  0.2839222910902001  0.8357743832307902  1.0000
  Eu  Eu2       1.0  0.3966387351911818  0.6920017360009584  0.10928059761710086  1.0000
  Eu  Eu3       1.0  0.713848682961938  0.21195540724542805  0.6184076066747349  1.0000
  Eu  Eu4       1.0  0.38172907720010657  0.9274558473551339  0.3660678999492268  1.0000
  Eu  Eu5       1.0  0.8643031254973356  0.08246552798633881  0.27739334404429505  1.0000
  Eu  Eu6       1.0  0.11702488623629712  0.9103345778551014  0.6672840101606368  1.0000
  Eu  Eu7       1.0  0.9880469035333278  0.8386382335974976  0.27504666875607986  1.0000
  Eu  Eu8       1.0  0.8419278754657104  0.006259393132448074  0.7296523768083102  1.0000
  Eu  Eu9       1.0  0.8429387523256942  0.9407683840052118  0.5088761388325963  1.0000
  Eu  Eu10      1.0  0.8669616878693865  0.9314888802251192  0.010433415492023266  1.0000
  Cd  Cd1       1.0  0.38724322504282765  0.24961704888091787  0.5117512430330956  1.0000
  Cd  Cd2       1.0  0.2689738688313208  0.4954228923075623  0.6231435096136032  1.0000
  Cd  Cd3       1.0  0.6083156242233347  0.30796988134490555  0.14455313353062116  1.0000
  Cd  Cd4       1.0  0.8376078180745384  0.25299474333082417  0.032472499722502324  1.0000
  Sb  Sb1       1.0  0.02187964211930815  0.3393142362156605  0.46575852359667547  1.0000
  Sb  Sb2       1.0  0.8206065028424063  0.5120689509044402  0.4552360146403975  1.0000
  Sb  Sb3       1.0  0.49278785778504686  0.7470550606986847  0.9085183788155407  1.0000
  Sb  Sb4       1.0  0.3245812887654641  0.9046389987113407  0.9844222581128719  1.0000
  Sb  Sb5       1.0  0.4702270265024208  0.4998360739882237  0.3404499688637116  1.0000
  Sb  Sb6       1.0  0.5069664897845216  0.4699721344894374  0.6723106574163499  1.0000
  Sb  Sb7       1.0  0.4564471680937851  0.40310161901053176  0.1094784345772113  1.0000
  Sb  Sb8       1.0  0.3397512312465508  0.275840299455298  0.8549280415196165  1.0000
  Sb  Sb9       1.0  0.9117694513865892  0.38834873079630566  0.2467455511469528  1.0000
  Sb  Sb10      1.0  0.10290146774076155  0.5253143411495242  0.8224476776414182  1.0000
  O   O1        1.0  0.8956473499028599  0.1036914372674795  0.12346144739351576  1.0000
  O   O2        1.0  0.4039435859773696  0.01624461507549388  0.7232847936559004  1.0000
data_image174
_chemical_formula_structural       Eu10Cd4Sb10O2
_chemical_formula_sum              "Eu10 Cd4 Sb10 O2"
_cell_length_a       11.24426501306804
_cell_length_b       11.24426501306804
_cell_length_c       14.850709
_cell_angle_alpha    90.0
_cell_angle_beta     90.0
_cell_angle_gamma    155.89846091665316

_space_group_name_H-M_alt    "P 1"
_space_group_IT_number       1

loop_
  _space_group_symop_operation_xyz
  'x, y, z'

loop_
  _atom_site_type_symbol
  _atom_site_label
  _atom_site_symmetry_multiplicity
  _atom_site_fract_x
  _atom_site_fract_y
  _atom_site_fract_z
  _atom_site_occupancy
  Eu  Eu1       1.0  0.6524943233963743  0.3057651016787704  0.8445710334492653  1.0000
  Eu  Eu2       1.0  0.3117260826531932  0.5768729943467046  0.10284265805392685  1.0000
  Eu  Eu3       1.0  0.7204965230283572  0.20771330716541914  0.6141636139435775  1.0000
  Eu  Eu4       1.0  0.46192965859806906  0.9354062425444695  0.374840845337296  1.0000
  Eu  Eu5       1.0  0.9072015144200949  0.09076234506037777  0.273168050239521  1.0000
  Eu  Eu6       1.0  0.02956900890710687  0.7949070212325472  0.6629592476514723  1.0000
  Eu  Eu7       1.0  0.014147961069925963  0.8780918018448585  0.2604283037495641  1.0000
  Eu  Eu8       1.0  0.8479609771283743  0.05239554827697867  0.7757662081262936  1.0000
  Eu  Eu9       1.0  0.8752631337236338  0.9711889680590451  0.516120750168634  1.0000
  Eu  Eu10      1.0  0.85084562528398  0.9315124684609275  0.019525071415424367  1.0000
  Cd  Cd1       1.0  0.3697997769198427  0.2188911508552509  0.49964363248385973  1.0000
  Cd  Cd2       1.0  0.2847714326072712  0.5507314188817324  0.637862208412708  1.0000
  Cd  Cd3       1.0  0.5411325433520165  0.24558716033357783  0.16036594906298535  1.0000
  Cd  Cd4       1.0  0.733422637599892  0.17114350667288414  0.0205138982598585  1.0000
  Sb  Sb1       1.0  0.14752124286532942  0.46341266337252657  0.44493568735287753  1.0000
  Sb  Sb2       1.0  0.8685224506855731  0.5505526478629003  0.43640138651851335  1.0000
  Sb  Sb3       1.0  0.4225754594944846  0.681779172857057  0.9070687605364836  1.0000
  Sb  Sb4       1.0  0.2010997797996598  0.7561617109539515  0.010527633632409383  1.0000
  Sb  Sb5       1.0  0.5050015304819936  0.5404672528300851  0.34367229804089794  1.0000
  Sb  Sb6       1.0  0.5481812763143761  0.5153590914284089  0.683673432495798  1.0000
  Sb  Sb7       1.0  0.4375702604537213  0.4019704049717403  0.10667144198250124  1.0000
  Sb  Sb8       1.0  0.25373100641960505  0.20513709224636445  0.8456655620802851  1.0000
  Sb  Sb9       1.0  0.03629946177118204  0.5264390955694738  0.20111788846844786  1.0000
  Sb  Sb10      1.0  0.1490268193912604  0.6134053938154258  0.8185137235274486  1.0000
  O   O1        1.0  0.8188446649068472  0.010598377526905754  0.13147845377856296  1.0000
  O   O2        1.0  0.6076717397779587  0.25036644685518505  0.6996605183456017  1.0000
data_image175
_chemical_formula_structural       Eu10Cd4Sb10O2
_chemical_formula_sum              "Eu10 Cd4 Sb10 O2"
_cell_length_a       11.24426501306804
_cell_length_b       11.24426501306804
_cell_length_c       14.850709
_cell_angle_alpha    90.0
_cell_angle_beta     90.0
_cell_angle_gamma    155.89846091665316

_space_group_name_H-M_alt    "P 1"
_space_group_IT_number       1

loop_
  _space_group_symop_operation_xyz
  'x, y, z'

loop_
  _atom_site_type_symbol
  _atom_site_label
  _atom_site_symmetry_multiplicity
  _atom_site_fract_x
  _atom_site_fract_y
  _atom_site_fract_z
  _atom_site_occupancy
  Eu  Eu1       1.0  0.60822660279964  0.2593918502972658  0.8763880049064519  1.0000
  Eu  Eu2       1.0  0.24862369720008123  0.48154499844266985  0.08734950210744484  1.0000
  Eu  Eu3       1.0  0.6947221150011009  0.20420307093769677  0.617565826949635  1.0000
  Eu  Eu4       1.0  0.5577480317322723  0.033902278503346484  0.341183917286938  1.0000
  Eu  Eu5       1.0  0.9741188352591987  0.13571154271842112  0.2564594551505335  1.0000
  Eu  Eu6       1.0  0.01055840499931525  0.7738455349073027  0.6817708531027138  1.0000
  Eu  Eu7       1.0  0.05036420978315588  0.8930662505453966  0.25311698641519176  1.0000
  Eu  Eu8       1.0  0.8938402510020389  0.10845242555533403  0.7996989332938366  1.0000
  Eu  Eu9       1.0  0.7834295344640936  0.9447535265974547  0.5278312857787518  1.0000
  Eu  Eu10      1.0  0.8969138179762317  0.9696029296905827  0.007129619788746785  1.0000
  Cd  Cd1       1.0  0.3852232155274187  0.22334398315535928  0.46460400690815584  1.0000
  Cd  Cd2       1.0  0.39946657514287015  0.689528192118683  0.6435604298035397  1.0000
  Cd  Cd3       1.0  0.6073941418488591  0.28569847657294345  0.16774655459719603  1.0000
  Cd  Cd4       1.0  0.687088814793101  0.1115290193111591  0.9948887013266807  1.0000
  Sb  Sb1       1.0  0.15654257544076522  0.48457856136510513  0.47184837368787347  1.0000
  Sb  Sb2       1.0  0.9589646384123334  0.6533446720716213  0.453857844295382  1.0000
  Sb  Sb3       1.0  0.3533866681918698  0.5921754285885745  0.9044461621888982  1.0000
  Sb  Sb4       1.0  0.04774692409442023  0.6512178940439701  0.03407588771602921  1.0000
  Sb  Sb5       1.0  0.49877510711276063  0.510365028787226  0.33718679822103215  1.0000
  Sb  Sb6       1.0  0.40796419898843017  0.36464901776493364  0.6740719963078201  1.0000
  Sb  Sb7       1.0  0.44792587338256573  0.39891598003774226  0.11819837626992268  1.0000
  Sb  Sb8       1.0  0.25225048087872753  0.19353761431017127  0.8550030826655298  1.0000
  Sb  Sb9       1.0  0.005110749828987515  0.49096981526453043  0.207739358413638  1.0000
  Sb  Sb10      1.0  0.26319094283361494  0.7379070377372327  0.7826387372155156  1.0000
  O   O1        1.0  0.7286233232928612  0.9566835749887023  0.10396849180193596  1.0000
  O   O2        1.0  0.579583313858055  0.22924173984893542  0.7194946283947034  1.0000
data_image176
_chemical_formula_structural       Eu10Cd4Sb10O2
_chemical_formula_sum              "Eu10 Cd4 Sb10 O2"
_cell_length_a       11.24426501306804
_cell_length_b       11.24426501306804
_cell_length_c       14.850709
_cell_angle_alpha    90.0
_cell_angle_beta     90.0
_cell_angle_gamma    155.89846091665316

_space_group_name_H-M_alt    "P 1"
_space_group_IT_number       1

loop_
  _space_group_symop_operation_xyz
  'x, y, z'

loop_
  _atom_site_type_symbol
  _atom_site_label
  _atom_site_symmetry_multiplicity
  _atom_site_fract_x
  _atom_site_fract_y
  _atom_site_fract_z
  _atom_site_occupancy
  Eu  Eu1       1.0  0.6055160122042424  0.254902509768563  0.8676445007380645  1.0000
  Eu  Eu2       1.0  0.3113423569021413  0.5438705822479065  0.08535262419542522  1.0000
  Eu  Eu3       1.0  0.6803165522547803  0.21381775995036492  0.6173037011058636  1.0000
  Eu  Eu4       1.0  0.5463608193104396  0.036910682961825536  0.3535090223469754  1.0000
  Eu  Eu5       1.0  0.9684214400282245  0.13421130391962527  0.2723574275681944  1.0000
  Eu  Eu6       1.0  0.9882230208506452  0.7594303238256632  0.7121217717423604  1.0000
  Eu  Eu7       1.0  0.05080324619480432  0.8739864997829725  0.23917846125199066  1.0000
  Eu  Eu8       1.0  0.8671699543680028  0.08148870276158816  0.7861558789766842  1.0000
  Eu  Eu9       1.0  0.7636589477298574  0.9211009145597255  0.5040125031725876  1.0000
  Eu  Eu10      1.0  0.8867452411366737  0.9070032653456873  0.027954238393016216  1.0000
  Cd  Cd1       1.0  0.4459607221741825  0.2900349458029961  0.46764078269429515  1.0000
  Cd  Cd2       1.0  0.3671882867653583  0.6525772200935285  0.6784816973557755  1.0000
  Cd  Cd3       1.0  0.5876396195885277  0.2504975193469773  0.12980985167386447  1.0000
  Cd  Cd4       1.0  0.6163364174018849  0.017166071124892213  0.9691155914179925  1.0000
  Sb  Sb1       1.0  0.13805602363880243  0.5065261721482741  0.4882828228854719  1.0000
  Sb  Sb2       1.0  0.06573718524257313  0.7609138233278545  0.4587630979255577  1.0000
  Sb  Sb3       1.0  0.4005433567494361  0.6123087761164384  0.9071377259730397  1.0000
  Sb  Sb4       1.0  0.08073805104667789  0.729927433572964  0.012850179109618276  1.0000
  Sb  Sb5       1.0  0.5793251013203944  0.5917168785513446  0.32191457450933886  1.0000
  Sb  Sb6       1.0  0.32448268566122307  0.34337131350033384  0.6714219363676894  1.0000
  Sb  Sb7       1.0  0.40337387280518144  0.3595987062767153  0.14479461161316268  1.0000
  Sb  Sb8       1.0  0.2862986668431453  0.20320728514401573  0.8610665952327339  1.0000
  Sb  Sb9       1.0  0.9760943840908162  0.415080951170643  0.20384987841613897  1.0000
  Sb  Sb10      1.0  0.2584326120649628  0.7454420056849641  0.7746308436518234  1.0000
  O   O1        1.0  0.7892126437612433  0.9657049759598367  0.1044604497413933  1.0000
  O   O2        1.0  0.49469667989703436  0.2012303255685  0.7054371160850096  1.0000
data_image177
_chemical_formula_structural       Eu10Cd4Sb10O2
_chemical_formula_sum              "Eu10 Cd4 Sb10 O2"
_cell_length_a       11.24426501306804
_cell_length_b       11.24426501306804
_cell_length_c       14.850709
_cell_angle_alpha    90.0
_cell_angle_beta     90.0
_cell_angle_gamma    155.89846091665316

_space_group_name_H-M_alt    "P 1"
_space_group_IT_number       1

loop_
  _space_group_symop_operation_xyz
  'x, y, z'

loop_
  _atom_site_type_symbol
  _atom_site_label
  _atom_site_symmetry_multiplicity
  _atom_site_fract_x
  _atom_site_fract_y
  _atom_site_fract_z
  _atom_site_occupancy
  Eu  Eu1       1.0  0.6149114989534896  0.2443870487865899  0.8589404041899927  1.0000
  Eu  Eu2       1.0  0.29147288849438835  0.5158273669882201  0.10556584371262755  1.0000
  Eu  Eu3       1.0  0.6908042220112456  0.22311228438741748  0.5890813798156461  1.0000
  Eu  Eu4       1.0  0.48852172048157383  0.008938827355104761  0.3654055729966097  1.0000
  Eu  Eu5       1.0  0.023553243843475347  0.21559793653230463  0.28466471529278914  1.0000
  Eu  Eu6       1.0  0.8980906285181425  0.7198416809314852  0.7199268155453993  1.0000
  Eu  Eu7       1.0  0.011616309254041828  0.7951232527185293  0.2589894966979099  1.0000
  Eu  Eu8       1.0  0.9180928699304703  0.11745653746892024  0.7677203929261553  1.0000
  Eu  Eu9       1.0  0.7354012266718569  0.8836196614239733  0.5140542183110874  1.0000
  Eu  Eu10      1.0  0.846584663342003  0.8238525560442838  0.015594861459698874  1.0000
  Cd  Cd1       1.0  0.47643208937254494  0.31427738000445776  0.48800953462867447  1.0000
  Cd  Cd2       1.0  0.38154396916370326  0.6859545494915901  0.642865489768884  1.0000
  Cd  Cd3       1.0  0.601258485804539  0.2777851229986946  0.1292911396792758  1.0000
  Cd  Cd4       1.0  0.5788378787000448  0.002118953185874739  0.9741523738837709  1.0000
  Sb  Sb1       1.0  0.14679763902501275  0.5100489767153564  0.4751739509562235  1.0000
  Sb  Sb2       1.0  0.07840478189648578  0.7649671598170349  0.47727480290426333  1.0000
  Sb  Sb3       1.0  0.42250134869385425  0.5850101497351867  0.8964722702735162  1.0000
  Sb  Sb4       1.0  0.1258763530809683  0.7964686741648431  0.9783110238620732  1.0000
  Sb  Sb5       1.0  0.6271037496521554  0.6434124912062783  0.35447397371923034  1.0000
  Sb  Sb6       1.0  0.36357564898777434  0.4226369229482599  0.659346101592943  1.0000
  Sb  Sb7       1.0  0.47194049771758717  0.40241499217325893  0.1654328608209182  1.0000
  Sb  Sb8       1.0  0.2750728545179345  0.21797727592160673  0.8501061133091812  1.0000
  Sb  Sb9       1.0  7.453239414800805e-05  0.45362042977894573  0.18872883545203908  1.0000
  Sb  Sb10      1.0  0.15855271233324522  0.6288719968935481  0.7923317714957911  1.0000
  O   O1        1.0  0.8789047864238654  0.014481786760039738  0.11046513872933302  1.0000
  O   O2        1.0  0.4820786177887949  0.1702080440424484  0.6940862531474337  1.0000
data_image178
_chemical_formula_structural       Eu10Cd4Sb10O2
_chemical_formula_sum              "Eu10 Cd4 Sb10 O2"
_cell_length_a       11.24426501306804
_cell_length_b       11.24426501306804
_cell_length_c       14.850709
_cell_angle_alpha    90.0
_cell_angle_beta     90.0
_cell_angle_gamma    155.89846091665316

_space_group_name_H-M_alt    "P 1"
_space_group_IT_number       1

loop_
  _space_group_symop_operation_xyz
  'x, y, z'

loop_
  _atom_site_type_symbol
  _atom_site_label
  _atom_site_symmetry_multiplicity
  _atom_site_fract_x
  _atom_site_fract_y
  _atom_site_fract_z
  _atom_site_occupancy
  Eu  Eu1       1.0  0.5396494053161877  0.142655669626298  0.8367257325403916  1.0000
  Eu  Eu2       1.0  0.4238504518079669  0.5993513686733785  0.10336466737942362  1.0000
  Eu  Eu3       1.0  0.6903237824263203  0.2105620866893443  0.5806516670228646  1.0000
  Eu  Eu4       1.0  0.43800332751281096  7.924774560974512e-05  0.3655661896770591  1.0000
  Eu  Eu5       1.0  0.05242522844126429  0.25986362534618435  0.29020061955453663  1.0000
  Eu  Eu6       1.0  0.9350280259803068  0.7598113548010955  0.6832639036848276  1.0000
  Eu  Eu7       1.0  0.990809680693747  0.7424097715523154  0.2762207649040594  1.0000
  Eu  Eu8       1.0  0.9657934551330952  0.15346056631510396  0.7551648612749987  1.0000
  Eu  Eu9       1.0  0.84357757501526  0.9688841823880858  0.5229400199048141  1.0000
  Eu  Eu10      1.0  0.8623042850858461  0.8448215153645684  0.00902204808456416  1.0000
  Cd  Cd1       1.0  0.4591670293730988  0.3231190608677737  0.5204164092360632  1.0000
  Cd  Cd2       1.0  0.28752137108319364  0.6340195687520254  0.620612243189799  1.0000
  Cd  Cd3       1.0  0.6223077904022044  0.2698977110985788  0.10665503360853258  1.0000
  Cd  Cd4       1.0  0.4326222497754617  0.8590980644345062  0.9903421629384304  1.0000
  Sb  Sb1       1.0  0.10119171585206854  0.4576740508624037  0.44180248874013356  1.0000
  Sb  Sb2       1.0  0.027466268142197377  0.7321130012511664  0.504256802617737  1.0000
  Sb  Sb3       1.0  0.4382852831126567  0.6124307736928718  0.9135776981502416  1.0000
  Sb  Sb4       1.0  0.11932036457928802  0.8141208377891985  0.0046039639934196686  1.0000
  Sb  Sb5       1.0  0.6025189903785371  0.6446723471655728  0.3549533116031576  1.0000
  Sb  Sb6       1.0  0.4597016939938606  0.5079047748343792  0.6578122047995988  1.0000
  Sb  Sb7       1.0  0.39314874175616915  0.3327378796023907  0.18310996206406766  1.0000
  Sb  Sb8       1.0  0.3469392033651612  0.2853049234890323  0.8521295949907736  1.0000
  Sb  Sb9       1.0  0.0074915798798915745  0.48687137301827116  0.20806371658558984  1.0000
  Sb  Sb10      1.0  0.11331219795637858  0.5728748633965047  0.7863951033450933  1.0000
  O   O1        1.0  0.8917771789373636  0.9864186280017332  0.13119387954792536  1.0000
  O   O2        1.0  0.4502036081039631  0.10429891869613586  0.6696955568098589  1.0000
data_image179
_chemical_formula_structural       Eu10Cd4Sb10O2
_chemical_formula_sum              "Eu10 Cd4 Sb10 O2"
_cell_length_a       11.24426501306804
_cell_length_b       11.24426501306804
_cell_length_c       14.850709
_cell_angle_alpha    90.0
_cell_angle_beta     90.0
_cell_angle_gamma    155.89846091665316

_space_group_name_H-M_alt    "P 1"
_space_group_IT_number       1

loop_
  _space_group_symop_operation_xyz
  'x, y, z'

loop_
  _atom_site_type_symbol
  _atom_site_label
  _atom_site_symmetry_multiplicity
  _atom_site_fract_x
  _atom_site_fract_y
  _atom_site_fract_z
  _atom_site_occupancy
  Eu  Eu1       1.0  0.559853352853359  0.19052321747426454  0.8540656814487804  1.0000
  Eu  Eu2       1.0  0.5359589626827995  0.725595584059993  0.11372110082159434  1.0000
  Eu  Eu3       1.0  0.5719989287036298  0.1274277697431452  0.5628016823720737  1.0000
  Eu  Eu4       1.0  0.4223265001511001  0.983600721956605  0.3652457098824952  1.0000
  Eu  Eu5       1.0  0.06712181050489296  0.23883422289774892  0.2902251324917503  1.0000
  Eu  Eu6       1.0  0.04176122463743785  0.8482829118770342  0.679365448129938  1.0000
  Eu  Eu7       1.0  0.9338598082220502  0.7123902379804921  0.24507701177741448  1.0000
  Eu  Eu8       1.0  0.9554229129494647  0.13846824032881302  0.7750300092644155  1.0000
  Eu  Eu9       1.0  0.9543840220300823  0.07525762703994023  0.516532212533075  1.0000
  Eu  Eu10      1.0  0.9284003698099914  0.9101137735810666  0.01807755703711215  1.0000
  Cd  Cd1       1.0  0.39416810390826257  0.2857576545227143  0.4881549223793332  1.0000
  Cd  Cd2       1.0  0.21991669892274554  0.544765492828875  0.6515185118051728  1.0000
  Cd  Cd3       1.0  0.6731282312580035  0.27069909358567545  0.08910328166236772  1.0000
  Cd  Cd4       1.0  0.25684642960900755  0.6936356967620411  0.9758156700814757  1.0000
  Sb  Sb1       1.0  0.1302879214708661  0.5005860180027436  0.4594415431971875  1.0000
  Sb  Sb2       1.0  0.9431532624799824  0.6809620056991857  0.4854586931846337  1.0000
  Sb  Sb3       1.0  0.4118956259124644  0.6176852146609172  0.9085624302905785  1.0000
  Sb  Sb4       1.0  0.13273358562685492  0.8231144047964585  0.019976957424113095  1.0000
  Sb  Sb5       1.0  0.6153618435119932  0.6157134965220425  0.35370483214278126  1.0000
  Sb  Sb6       1.0  0.4759962988986009  0.5364250214610109  0.6604704381448052  1.0000
  Sb  Sb7       1.0  0.36844252490000173  0.2715197982387538  0.17559768139274692  1.0000
  Sb  Sb8       1.0  0.36375890044822473  0.28204044603174583  0.8464527917381364  1.0000
  Sb  Sb9       1.0  0.027161488291274516  0.4805304602093533  0.23722099488023604  1.0000
  Sb  Sb10      1.0  0.0686033746365036  0.541464386661745  0.80011178726919  1.0000
  O   O1        1.0  0.015034436426086014  0.16139997785819676  0.08580715348095802  1.0000
  O   O2        1.0  0.5381415100979384  0.19308219628653325  0.6818342032275289  1.0000
data_image180
_chemical_formula_structural       Eu10Cd4Sb10O2
_chemical_formula_sum              "Eu10 Cd4 Sb10 O2"
_cell_length_a       11.24426501306804
_cell_length_b       11.24426501306804
_cell_length_c       14.850709
_cell_angle_alpha    90.0
_cell_angle_beta     90.0
_cell_angle_gamma    155.89846091665316

_space_group_name_H-M_alt    "P 1"
_space_group_IT_number       1

loop_
  _space_group_symop_operation_xyz
  'x, y, z'

loop_
  _atom_site_type_symbol
  _atom_site_label
  _atom_site_symmetry_multiplicity
  _atom_site_fract_x
  _atom_site_fract_y
  _atom_site_fract_z
  _atom_site_occupancy
  Eu  Eu1       1.0  0.5180063799109338  0.17257308262013218  0.8804537215195447  1.0000
  Eu  Eu2       1.0  0.4896092771251467  0.7255460279685545  0.1072377616104577  1.0000
  Eu  Eu3       1.0  0.5467814840338089  0.12341007403536147  0.5974493540209735  1.0000
  Eu  Eu4       1.0  0.4819416770378372  0.015905830602090054  0.3549561888305404  1.0000
  Eu  Eu5       1.0  0.10444493123263077  0.25062140025825697  0.2854076011221269  1.0000
  Eu  Eu6       1.0  0.07047219754670564  0.8757105905424979  0.6857242424903126  1.0000
  Eu  Eu7       1.0  0.921891562246898  0.6555520993283848  0.23366943027706458  1.0000
  Eu  Eu8       1.0  0.9492573311095266  0.13526985413403556  0.784430016944702  1.0000
  Eu  Eu9       1.0  0.8819579752458688  0.01177376195154716  0.49863716105418815  1.0000
  Eu  Eu10      1.0  0.884600762442198  0.8788183895982766  0.013808305215206634  1.0000
  Cd  Cd1       1.0  0.37655962633026363  0.23535681296492578  0.48382976451025556  1.0000
  Cd  Cd2       1.0  0.20732694086199552  0.5413382051277934  0.6402797872948026  1.0000
  Cd  Cd3       1.0  0.7299296253564312  0.30371547526614656  0.11092720597850207  1.0000
  Cd  Cd4       1.0  0.17085493847563613  0.6419897996053565  0.9730492011963539  1.0000
  Sb  Sb1       1.0  0.1743518839725431  0.5347623834631031  0.46138036180829817  1.0000
  Sb  Sb2       1.0  0.0005289026761617152  0.7115947098526821  0.43517069824653687  1.0000
  Sb  Sb3       1.0  0.45904712584634844  0.6753888066057431  0.9281805336967064  1.0000
  Sb  Sb4       1.0  0.1757609550759716  0.9042504765801272  0.04559355354019479  1.0000
  Sb  Sb5       1.0  0.7157161293664351  0.6811065537369044  0.352016163287806  1.0000
  Sb  Sb6       1.0  0.48516385292661635  0.5272998601471038  0.6442630447057789  1.0000
  Sb  Sb7       1.0  0.3404656030360531  0.23865219187574097  0.14128924243497212  1.0000
  Sb  Sb8       1.0  0.35802457357675216  0.3034995633940617  0.8639949975293482  1.0000
  Sb  Sb9       1.0  0.012382045033695555  0.4605939831927744  0.25221352900159333  1.0000
  Sb  Sb10      1.0  0.025538109033830716  0.5028978095661486  0.7849584791934056  1.0000
  O   O1        1.0  0.9298909650491122  0.07947245203910462  0.13762490141519831  1.0000
  O   O2        1.0  0.5937289495362622  0.3234614235069611  0.6900538657251093  1.0000
data_image181
_chemical_formula_structural       Eu10Cd4Sb10O2
_chemical_formula_sum              "Eu10 Cd4 Sb10 O2"
_cell_length_a       11.24426501306804
_cell_length_b       11.24426501306804
_cell_length_c       14.850709
_cell_angle_alpha    90.0
_cell_angle_beta     90.0
_cell_angle_gamma    155.89846091665316

_space_group_name_H-M_alt    "P 1"
_space_group_IT_number       1

loop_
  _space_group_symop_operation_xyz
  'x, y, z'

loop_
  _atom_site_type_symbol
  _atom_site_label
  _atom_site_symmetry_multiplicity
  _atom_site_fract_x
  _atom_site_fract_y
  _atom_site_fract_z
  _atom_site_occupancy
  Eu  Eu1       1.0  0.4852977040160852  0.1741298244451241  0.8709250845571098  1.0000
  Eu  Eu2       1.0  0.4952809976759311  0.7798477202749675  0.1377691658293505  1.0000
  Eu  Eu3       1.0  0.5734620511125942  0.1447263735765927  0.6153095851680369  1.0000
  Eu  Eu4       1.0  0.49548416682968605  0.02684021774497558  0.3539217658932196  1.0000
  Eu  Eu5       1.0  0.1725968874963224  0.3122725237769594  0.26269953222041714  1.0000
  Eu  Eu6       1.0  0.9665739434098859  0.7660466654563802  0.6827156351209508  1.0000
  Eu  Eu7       1.0  0.010385815133450481  0.7085639912066453  0.2459885732545699  1.0000
  Eu  Eu8       1.0  0.9501965428257073  0.12894124486796088  0.7643529678494204  1.0000
  Eu  Eu9       1.0  0.8207974547995722  0.9921852512044119  0.5071622767045346  1.0000
  Eu  Eu10      1.0  0.8882265834954738  0.9134861731498202  0.03726901644886134  1.0000
  Cd  Cd1       1.0  0.4834902755812596  0.3382360971434855  0.4894575796825832  1.0000
  Cd  Cd2       1.0  0.31784782940223916  0.6471816847763965  0.6401747264819995  1.0000
  Cd  Cd3       1.0  0.649540669720869  0.20222133694056124  0.11464939298229387  1.0000
  Cd  Cd4       1.0  0.12946707298287824  0.5734742514337852  0.9590409887443153  1.0000
  Sb  Sb1       1.0  0.02151450172269298  0.39365178084350333  0.430142608810495  1.0000
  Sb  Sb2       1.0  0.9483816081528285  0.6659292618877637  0.45270445759755773  1.0000
  Sb  Sb3       1.0  0.39354364640757056  0.5869412387601444  0.9253153877919653  1.0000
  Sb  Sb4       1.0  0.15271635585704313  0.8292533266304428  0.04459788926097463  1.0000
  Sb  Sb5       1.0  0.6428743413293956  0.6371067194262816  0.350394144886531  1.0000
  Sb  Sb6       1.0  0.45455543104825896  0.43284637400568193  0.6296420037631855  1.0000
  Sb  Sb7       1.0  0.5179016526910355  0.40925708155264523  0.13514805541429623  1.0000
  Sb  Sb8       1.0  0.4368189953879896  0.41687743664920784  0.8647546138722922  1.0000
  Sb  Sb9       1.0  0.07315308265789633  0.5222867365265534  0.24381950921016118  1.0000
  Sb  Sb10      1.0  0.03387849152244163  0.5082082041156177  0.7868548433662543  1.0000
  O   O1        1.0  0.9380777946282266  0.1180811842952762  0.14148867453415126  1.0000
  O   O2        1.0  0.41696817962052096  0.12877422557429885  0.7253147523178243  1.0000
data_image182
_chemical_formula_structural       Eu10Cd4Sb10O2
_chemical_formula_sum              "Eu10 Cd4 Sb10 O2"
_cell_length_a       11.24426501306804
_cell_length_b       11.24426501306804
_cell_length_c       14.850709
_cell_angle_alpha    90.0
_cell_angle_beta     90.0
_cell_angle_gamma    155.89846091665316

_space_group_name_H-M_alt    "P 1"
_space_group_IT_number       1

loop_
  _space_group_symop_operation_xyz
  'x, y, z'

loop_
  _atom_site_type_symbol
  _atom_site_label
  _atom_site_symmetry_multiplicity
  _atom_site_fract_x
  _atom_site_fract_y
  _atom_site_fract_z
  _atom_site_occupancy
  Eu  Eu1       1.0  0.5854686980590503  0.28915855013041647  0.8689516583716613  1.0000
  Eu  Eu2       1.0  0.5782720239663389  0.842812315241183  0.1586458208551267  1.0000
  Eu  Eu3       1.0  0.6263513499703197  0.1969454085798717  0.6305880281000361  1.0000
  Eu  Eu4       1.0  0.4935502198718196  0.9939530661210462  0.37018601119382577  1.0000
  Eu  Eu5       1.0  0.1458427899651531  0.27370534336284574  0.2516059827982694  1.0000
  Eu  Eu6       1.0  0.8903954624877  0.702204795799827  0.6897439424549946  1.0000
  Eu  Eu7       1.0  0.04922446790831257  0.7840099691725334  0.24568297283227877  1.0000
  Eu  Eu8       1.0  0.8872063385782029  0.07954791677470609  0.7552809698421757  1.0000
  Eu  Eu9       1.0  0.8265629784276808  0.9777677726261731  0.5293367524208897  1.0000
  Eu  Eu10      1.0  0.9133476658074916  0.9406945610000085  0.02675966233370304  1.0000
  Cd  Cd1       1.0  0.3004874555594736  0.1824083478880357  0.45994428686158995  1.0000
  Cd  Cd2       1.0  0.3691116057661575  0.7095927763321614  0.6243084996274132  1.0000
  Cd  Cd3       1.0  0.7007909051908365  0.2252166008215434  0.0850389090772682  1.0000
  Cd  Cd4       1.0  0.01938506329960287  0.454479912448638  0.953377978473641  1.0000
  Sb  Sb1       1.0  0.05504445966887661  0.3950097825390843  0.43918215760939927  1.0000
  Sb  Sb2       1.0  0.9575556633647709  0.6461234130569982  0.5003399082441076  1.0000
  Sb  Sb3       1.0  0.38805080860583496  0.5721665793699  0.9126123898280374  1.0000
  Sb  Sb4       1.0  0.1100711246692224  0.7968344069088314  0.04519205940804483  1.0000
  Sb  Sb5       1.0  0.7180372588165763  0.7251669549214721  0.33657377265566446  1.0000
  Sb  Sb6       1.0  0.38728057546664996  0.4219604617853725  0.6498604276354708  1.0000
  Sb  Sb7       1.0  0.473958770079407  0.3872331456736879  0.14256696613200023  1.0000
  Sb  Sb8       1.0  0.5077426417694042  0.4656471865454735  0.8416443156435439  1.0000
  Sb  Sb9       1.0  0.9643937961834068  0.395131489158176  0.2468577580662464  1.0000
  Sb  Sb10      1.0  0.09512794817227999  0.5787711394069743  0.7691631522154132  1.0000
  O   O1        1.0  0.08163642741587616  0.27783860386156073  0.10438569041553297  1.0000
  O   O2        1.0  0.45965359853740395  0.18660773428999253  0.7069580393281384  1.0000
data_image183
_chemical_formula_structural       Eu10Cd4Sb10O2
_chemical_formula_sum              "Eu10 Cd4 Sb10 O2"
_cell_length_a       11.24426501306804
_cell_length_b       11.24426501306804
_cell_length_c       14.850709
_cell_angle_alpha    90.0
_cell_angle_beta     90.0
_cell_angle_gamma    155.89846091665316

_space_group_name_H-M_alt    "P 1"
_space_group_IT_number       1

loop_
  _space_group_symop_operation_xyz
  'x, y, z'

loop_
  _atom_site_type_symbol
  _atom_site_label
  _atom_site_symmetry_multiplicity
  _atom_site_fract_x
  _atom_site_fract_y
  _atom_site_fract_z
  _atom_site_occupancy
  Eu  Eu1       1.0  0.5921939484716239  0.3103756477702271  0.8669350384994322  1.0000
  Eu  Eu2       1.0  0.5001000726418704  0.7901431256546048  0.1692952397948548  1.0000
  Eu  Eu3       1.0  0.5286785651665297  0.11651538534594805  0.6266987763827123  1.0000
  Eu  Eu4       1.0  0.4610857284076774  0.9304205332922878  0.4064452026876948  1.0000
  Eu  Eu5       1.0  0.1788345134971776  0.30792430505360574  0.25445319699170843  1.0000
  Eu  Eu6       1.0  0.9527781963716947  0.754015791975033  0.6886720842494779  1.0000
  Eu  Eu7       1.0  0.013696369825124526  0.789114341115252  0.25134754625121514  1.0000
  Eu  Eu8       1.0  0.8247644293605466  0.05011914508282825  0.7848847886876035  1.0000
  Eu  Eu9       1.0  0.9651874293313933  0.05919274557541345  0.5083068854740537  1.0000
  Eu  Eu10      1.0  0.9815269586365886  0.9904109809622311  0.012811101285766872  1.0000
  Cd  Cd1       1.0  0.24213931251233087  0.10944760432783221  0.4370227385822622  1.0000
  Cd  Cd2       1.0  0.3530775683871811  0.6530991823308272  0.6310557081733622  1.0000
  Cd  Cd3       1.0  0.6309808519814576  0.17899076796395622  0.09250599103414575  1.0000
  Cd  Cd4       1.0  0.9312655592084288  0.3940892510853373  0.9391329495131977  1.0000
  Sb  Sb1       1.0  0.10883060986881476  0.3878955178954213  0.4229847971471701  1.0000
  Sb  Sb2       1.0  0.9760563246027452  0.6604095648776589  0.5023860351034029  1.0000
  Sb  Sb3       1.0  0.44134472994720353  0.6335028352855129  0.918775709095326  1.0000
  Sb  Sb4       1.0  0.1070156957767791  0.7878226256154998  0.024266160982832297  1.0000
  Sb  Sb5       1.0  0.7507236794305827  0.7437700573827067  0.344194205147792  1.0000
  Sb  Sb6       1.0  0.3503930059217839  0.4174834831425275  0.6525744115809008  1.0000
  Sb  Sb7       1.0  0.4878250821899953  0.3738772479235618  0.14248571123098078  1.0000
  Sb  Sb8       1.0  0.6127237885299406  0.6022781788133946  0.8198870833684879  1.0000
  Sb  Sb9       1.0  0.9361536256873744  0.4013475542984774  0.25671516956593976  1.0000
  Sb  Sb10      1.0  0.12462669308391926  0.6010380081108722  0.7625157008321529  1.0000
  O   O1        1.0  0.9402586806106505  0.11379032883518482  0.12064075735259147  1.0000
  O   O2        1.0  0.3996902038274892  0.14610218127202262  0.7303522859976935  1.0000
data_image184
_chemical_formula_structural       Eu10Cd4Sb10O2
_chemical_formula_sum              "Eu10 Cd4 Sb10 O2"
_cell_length_a       11.24426501306804
_cell_length_b       11.24426501306804
_cell_length_c       14.850709
_cell_angle_alpha    90.0
_cell_angle_beta     90.0
_cell_angle_gamma    155.89846091665316

_space_group_name_H-M_alt    "P 1"
_space_group_IT_number       1

loop_
  _space_group_symop_operation_xyz
  'x, y, z'

loop_
  _atom_site_type_symbol
  _atom_site_label
  _atom_site_symmetry_multiplicity
  _atom_site_fract_x
  _atom_site_fract_y
  _atom_site_fract_z
  _atom_site_occupancy
  Eu  Eu1       1.0  0.48399373333194023  0.22218003144061532  0.8701827681913838  1.0000
  Eu  Eu2       1.0  0.4845900604766053  0.7842358666257869  0.15234612252038182  1.0000
  Eu  Eu3       1.0  0.47578330450718176  0.07266349546231293  0.6192475046328998  1.0000
  Eu  Eu4       1.0  0.4473235258036823  0.901288587583878  0.42976876772915157  1.0000
  Eu  Eu5       1.0  0.2573671818649259  0.3594871784382436  0.23695728320414922  1.0000
  Eu  Eu6       1.0  0.044607711793484627  0.8618585617579558  0.6868203075477589  1.0000
  Eu  Eu7       1.0  0.04131902949439667  0.7848960141115064  0.231306593664088  1.0000
  Eu  Eu8       1.0  0.8047406653599363  0.09388595846736936  0.8236076268758895  1.0000
  Eu  Eu9       1.0  0.8825247874877649  0.9582338005219623  0.5247567875337764  1.0000
  Eu  Eu10      1.0  0.024480407415546038  0.024868456284724807  0.028428091145265524  1.0000
  Cd  Cd1       1.0  0.3302859370339393  0.1887327962011816  0.424052566749008  1.0000
  Cd  Cd2       1.0  0.27787240021808374  0.57574952625533  0.6276031076686536  1.0000
  Cd  Cd3       1.0  0.5996454710199611  0.14458404336937258  0.09763680797679747  1.0000
  Cd  Cd4       1.0  0.9652660553671151  0.4303858935044325  0.9500705059857333  1.0000
  Sb  Sb1       1.0  0.16311232303324052  0.42979587083165294  0.4379630669465257  1.0000
  Sb  Sb2       1.0  0.9215302556528251  0.6195661148197872  0.4743311430354165  1.0000
  Sb  Sb3       1.0  0.35003025561547085  0.5239004478673184  0.9571643570026631  1.0000
  Sb  Sb4       1.0  0.056007956955782603  0.7703075114212311  0.017252232680065704  1.0000
  Sb  Sb5       1.0  0.698811298311362  0.6666699077880454  0.343366375629084  1.0000
  Sb  Sb6       1.0  0.4761521522740711  0.5246928813777179  0.6229402732788568  1.0000
  Sb  Sb7       1.0  0.545092088659682  0.39562016888826457  0.11851793880850432  1.0000
  Sb  Sb8       1.0  0.7098781429944713  0.7191004403501913  0.8248746454918243  1.0000
  Sb  Sb9       1.0  0.8774585125856171  0.3777267508900586  0.2608266116102054  1.0000
  Sb  Sb10      1.0  0.12292993568261709  0.5991591650646988  0.7455987716243013  1.0000
  O   O1        1.0  0.8975479010914594  0.05640987257481966  0.13908272696267449  1.0000
  O   O2        1.0  0.6652329262182929  0.3895733191253885  0.7348529837166831  1.0000
data_image185
_chemical_formula_structural       Eu10Cd4Sb10O2
_chemical_formula_sum              "Eu10 Cd4 Sb10 O2"
_cell_length_a       11.24426501306804
_cell_length_b       11.24426501306804
_cell_length_c       14.850709
_cell_angle_alpha    90.0
_cell_angle_beta     90.0
_cell_angle_gamma    155.89846091665316

_space_group_name_H-M_alt    "P 1"
_space_group_IT_number       1

loop_
  _space_group_symop_operation_xyz
  'x, y, z'

loop_
  _atom_site_type_symbol
  _atom_site_label
  _atom_site_symmetry_multiplicity
  _atom_site_fract_x
  _atom_site_fract_y
  _atom_site_fract_z
  _atom_site_occupancy
  Eu  Eu1       1.0  0.467992089630022  0.22068439759268152  0.8648773638028859  1.0000
  Eu  Eu2       1.0  0.46740272499348495  0.7832312000738929  0.15952926456348462  1.0000
  Eu  Eu3       1.0  0.46441415575143263  0.03640752295454377  0.6252569493707123  1.0000
  Eu  Eu4       1.0  0.4496669231068437  0.9434069960285413  0.400673238150167  1.0000
  Eu  Eu5       1.0  0.23774686421892666  0.3138739908129346  0.22911871589097513  1.0000
  Eu  Eu6       1.0  0.019870116325104006  0.8573669303760534  0.6855439709251078  1.0000
  Eu  Eu7       1.0  0.152034669968691  0.8633515202732661  0.2279152575040176  1.0000
  Eu  Eu8       1.0  0.7624404013879922  0.04928153330314073  0.8588343160205856  1.0000
  Eu  Eu9       1.0  0.8901451045114759  0.9743457842552449  0.5098060524110158  1.0000
  Eu  Eu10      1.0  0.9841013442338336  0.0028633410241021198  0.05331187813898954  1.0000
  Cd  Cd1       1.0  0.36205346551245143  0.181917730167072  0.4244540277597825  1.0000
  Cd  Cd2       1.0  0.1396735186578004  0.4503499967616866  0.6212014264867275  1.0000
  Cd  Cd3       1.0  0.6381667147333104  0.1878286109838931  0.06824562254710584  1.0000
  Cd  Cd4       1.0  0.1796556128430941  0.6570625141390034  0.9577489175410691  1.0000
  Sb  Sb1       1.0  0.26719376556463015  0.5058649288676372  0.43834957170720235  1.0000
  Sb  Sb2       1.0  0.8899866939992771  0.572046211605351  0.4621945826216252  1.0000
  Sb  Sb3       1.0  0.41077277970490433  0.5811533827764233  0.9776246619574493  1.0000
  Sb  Sb4       1.0  0.010989999373822263  0.7253023421244599  0.013125644627831612  1.0000
  Sb  Sb5       1.0  0.7928014708058386  0.7595034611615449  0.3467420321697931  1.0000
  Sb  Sb6       1.0  0.3844890653503235  0.3862371241048412  0.6359939014857865  1.0000
  Sb  Sb7       1.0  0.5419821460733202  0.4204127255150755  0.0990073779077151  1.0000
  Sb  Sb8       1.0  0.6966099836250943  0.6996279143421319  0.8137966371466129  1.0000
  Sb  Sb9       1.0  0.848676230175469  0.3544327416722229  0.2633878857244483  1.0000
  Sb  Sb10      1.0  0.042055186803695424  0.5613358162391335  0.7561665516815673  1.0000
  O   O1        1.0  0.7027678721121383  0.8241166292003489  0.1841423311866191  1.0000
  O   O2        1.0  0.5708663767383946  0.2770983658805027  0.7483190642526376  1.0000
data_image186
_chemical_formula_structural       Eu10Cd4Sb10O2
_chemical_formula_sum              "Eu10 Cd4 Sb10 O2"
_cell_length_a       11.24426501306804
_cell_length_b       11.24426501306804
_cell_length_c       14.850709
_cell_angle_alpha    90.0
_cell_angle_beta     90.0
_cell_angle_gamma    155.89846091665316

_space_group_name_H-M_alt    "P 1"
_space_group_IT_number       1

loop_
  _space_group_symop_operation_xyz
  'x, y, z'

loop_
  _atom_site_type_symbol
  _atom_site_label
  _atom_site_symmetry_multiplicity
  _atom_site_fract_x
  _atom_site_fract_y
  _atom_site_fract_z
  _atom_site_occupancy
  Eu  Eu1       1.0  0.46891622148936746  0.2177161712833078  0.8947090480285013  1.0000
  Eu  Eu2       1.0  0.471511157513769  0.8213656530784782  0.17911329660272257  1.0000
  Eu  Eu3       1.0  0.46023445990952583  0.015704150740499294  0.6072111409155958  1.0000
  Eu  Eu4       1.0  0.4232836413747951  0.9217426992661341  0.3977334894957411  1.0000
  Eu  Eu5       1.0  0.2997363153048944  0.36082717394399116  0.257911315374575  1.0000
  Eu  Eu6       1.0  0.9628070750944924  0.7996671410435217  0.6670490065108652  1.0000
  Eu  Eu7       1.0  0.20410940324909288  0.9266196661932601  0.20041540057289084  1.0000
  Eu  Eu8       1.0  0.8133622365422116  0.09713222751662681  0.8608250199812174  1.0000
  Eu  Eu9       1.0  0.8782442586335174  0.9932399278476592  0.5011370238665147  1.0000
  Eu  Eu10      1.0  0.8572804730341987  0.8947710638737004  0.06337642157571333  1.0000
  Cd  Cd1       1.0  0.4524552709178564  0.2588564829381063  0.4110796559602951  1.0000
  Cd  Cd2       1.0  0.018460340292864464  0.3676018938754372  0.6236081137114586  1.0000
  Cd  Cd3       1.0  0.6314583673090011  0.20295814243331067  0.06071498555251092  1.0000
  Cd  Cd4       1.0  0.2429878313694571  0.682302696202296  0.9404415879708414  1.0000
  Sb  Sb1       1.0  0.3212953248281998  0.5778847750847703  0.3922862989170944  1.0000
  Sb  Sb2       1.0  0.8933636941444933  0.5578681027360367  0.5157218696540571  1.0000
  Sb  Sb3       1.0  0.30715776860733035  0.5052702948526648  0.992549756204668  1.0000
  Sb  Sb4       1.0  0.017474820928164252  0.7081067029395419  0.012701482871268821  1.0000
  Sb  Sb5       1.0  0.8883066197817306  0.8078104764973318  0.3596603672968336  1.0000
  Sb  Sb6       1.0  0.4224627642096664  0.44734610274559367  0.6159523989438113  1.0000
  Sb  Sb7       1.0  0.4908759008124686  0.34356316357729194  0.10147865968669353  1.0000
  Sb  Sb8       1.0  0.7365532450291341  0.7129657031885936  0.8331344369947847  1.0000
  Sb  Sb9       1.0  0.856969062443767  0.352909366972159  0.22792107534807143  1.0000
  Sb  Sb10      1.0  0.9975189978672403  0.5045267388612517  0.7745815785800878  1.0000
  O   O1        1.0  0.8560140162291524  0.02175910240020126  0.19319341128198164  1.0000
  O   O2        1.0  0.41392777510347595  0.15258338288056472  0.7018706694460908  1.0000
data_image187
_chemical_formula_structural       Eu10Cd4Sb10O2
_chemical_formula_sum              "Eu10 Cd4 Sb10 O2"
_cell_length_a       11.24426501306804
_cell_length_b       11.24426501306804
_cell_length_c       14.850709
_cell_angle_alpha    90.0
_cell_angle_beta     90.0
_cell_angle_gamma    155.89846091665316

_space_group_name_H-M_alt    "P 1"
_space_group_IT_number       1

loop_
  _space_group_symop_operation_xyz
  'x, y, z'

loop_
  _atom_site_type_symbol
  _atom_site_label
  _atom_site_symmetry_multiplicity
  _atom_site_fract_x
  _atom_site_fract_y
  _atom_site_fract_z
  _atom_site_occupancy
  Eu  Eu1       1.0  0.3984954137166093  0.16733603794979798  0.8753591688397568  1.0000
  Eu  Eu2       1.0  0.5227244994203466  0.8497070069546048  0.17681695964912986  1.0000
  Eu  Eu3       1.0  0.5471773646032544  0.09637866480690815  0.6379668291868384  1.0000
  Eu  Eu4       1.0  0.43299738150636996  0.9439887539085899  0.39452713241778953  1.0000
  Eu  Eu5       1.0  0.28326514381461054  0.3474850777065679  0.2486954914239266  1.0000
  Eu  Eu6       1.0  0.9462206711164091  0.7766381863072128  0.6954219231705674  1.0000
  Eu  Eu7       1.0  0.06184764298757229  0.7885954395905296  0.21834728077884746  1.0000
  Eu  Eu8       1.0  0.8560405037114931  0.09202036970885377  0.8390247763087094  1.0000
  Eu  Eu9       1.0  0.9262097490552288  0.04276375402182875  0.5088907330422536  1.0000
  Eu  Eu10      1.0  0.8452723184940008  0.894348633015626  0.044211323108691865  1.0000
  Cd  Cd1       1.0  0.46431591519053084  0.2713389120887242  0.4482541014384951  1.0000
  Cd  Cd2       1.0  0.9286702095761122  0.2676868769689405  0.6060327051294044  1.0000
  Cd  Cd3       1.0  0.6032630920225249  0.13170275922897706  0.04244003900754455  1.0000
  Cd  Cd4       1.0  0.3030272235816303  0.7676644439530623  0.9150566993540006  1.0000
  Sb  Sb1       1.0  0.2641460759828742  0.5318021801985376  0.3805276139466282  1.0000
  Sb  Sb2       1.0  0.9806422902534261  0.6126379066626277  0.5019974995800164  1.0000
  Sb  Sb3       1.0  0.23425715437227845  0.4661980296560007  0.9933909213374733  1.0000
  Sb  Sb4       1.0  0.03508534964906463  0.7075705235463586  0.003001153385025823  1.0000
  Sb  Sb5       1.0  0.9864203375091454  0.8893542480623238  0.36557186619943594  1.0000
  Sb  Sb6       1.0  0.436179655350473  0.5064940421384395  0.6343668518246485  1.0000
  Sb  Sb7       1.0  0.5229153012080263  0.3856078500579164  0.08809986693689753  1.0000
  Sb  Sb8       1.0  0.7608563520174387  0.7450737342717533  0.8636890977582722  1.0000
  Sb  Sb9       1.0  0.820916452945527  0.34074958854552  0.23964929135903612  1.0000
  Sb  Sb10      1.0  0.9824090941163145  0.4892116467026674  0.7665442098247786  1.0000
  O   O1        1.0  0.7187592208357181  0.8575641581890284  0.18573676274294001  1.0000
  O   O2        1.0  0.38653468529096446  0.1332631972782767  0.7084990445973515  1.0000
data_image188
_chemical_formula_structural       Eu10Cd4Sb10O2
_chemical_formula_sum              "Eu10 Cd4 Sb10 O2"
_cell_length_a       11.24426501306804
_cell_length_b       11.24426501306804
_cell_length_c       14.850709
_cell_angle_alpha    90.0
_cell_angle_beta     90.0
_cell_angle_gamma    155.89846091665316

_space_group_name_H-M_alt    "P 1"
_space_group_IT_number       1

loop_
  _space_group_symop_operation_xyz
  'x, y, z'

loop_
  _atom_site_type_symbol
  _atom_site_label
  _atom_site_symmetry_multiplicity
  _atom_site_fract_x
  _atom_site_fract_y
  _atom_site_fract_z
  _atom_site_occupancy
  Eu  Eu1       1.0  0.4482252665936729  0.19244855685254128  0.8713327024749271  1.0000
  Eu  Eu2       1.0  0.5807882841322645  0.8808890137635135  0.19274639410194025  1.0000
  Eu  Eu3       1.0  0.4181394336311835  0.036783254793806036  0.6513623744214736  1.0000
  Eu  Eu4       1.0  0.5008719976578488  0.002442343705743699  0.3941127796847141  1.0000
  Eu  Eu5       1.0  0.24813847415412793  0.31607531903677927  0.21942606757760547  1.0000
  Eu  Eu6       1.0  0.8493097260931821  0.651350578813561  0.6937067565453358  1.0000
  Eu  Eu7       1.0  0.1123741782937024  0.8502484663310881  0.20772370097995624  1.0000
  Eu  Eu8       1.0  0.9284170159855916  0.14667591302192556  0.7982922283261661  1.0000
  Eu  Eu9       1.0  0.9069774391057497  0.019630400687114948  0.49855405991432084  1.0000
  Eu  Eu10      1.0  0.863609020489748  0.9317030289582435  0.058363117599460806  1.0000
  Cd  Cd1       1.0  0.4958827680284916  0.26870030779545717  0.4770796496839259  1.0000
  Cd  Cd2       1.0  0.9103907075130179  0.2659117420904154  0.6022779691933429  1.0000
  Cd  Cd3       1.0  0.5924494858051802  0.1116969608735631  0.04742238455959543  1.0000
  Cd  Cd4       1.0  0.3866150185006337  0.829624706687476  0.8739058862980942  1.0000
  Sb  Sb1       1.0  0.25240782938207507  0.5186925244271587  0.39673167972608586  1.0000
  Sb  Sb2       1.0  0.9408100427750611  0.5617613424537199  0.5121343026639528  1.0000
  Sb  Sb3       1.0  0.30891494476567916  0.5510647345886602  0.9920423201791739  1.0000
  Sb  Sb4       1.0  0.9179135185608741  0.5989213625826464  0.9798980643103499  1.0000
  Sb  Sb5       1.0  0.034841033412702505  0.9312688410884329  0.3891117313000968  1.0000
  Sb  Sb6       1.0  0.4010129912784991  0.519361185504982  0.6653035875405147  1.0000
  Sb  Sb7       1.0  0.5394421352822882  0.3760864240228205  0.09584125219508811  1.0000
  Sb  Sb8       1.0  0.7123154472996567  0.6921966285933769  0.8642841855930374  1.0000
  Sb  Sb9       1.0  0.7935561637204681  0.3540210819952802  0.25782302838006393  1.0000
  Sb  Sb10      1.0  0.9916085855166837  0.4976291120502035  0.757621544479166  1.0000
  O   O1        1.0  0.8112566971315462  0.8903064356631529  0.2018817087651748  1.0000
  O   O2        1.0  0.37498983073231296  0.1565596374546978  0.7134136178428763  1.0000
data_image189
_chemical_formula_structural       Eu10Cd4Sb10O2
_chemical_formula_sum              "Eu10 Cd4 Sb10 O2"
_cell_length_a       11.24426501306804
_cell_length_b       11.24426501306804
_cell_length_c       14.850709
_cell_angle_alpha    90.0
_cell_angle_beta     90.0
_cell_angle_gamma    155.89846091665316

_space_group_name_H-M_alt    "P 1"
_space_group_IT_number       1

loop_
  _space_group_symop_operation_xyz
  'x, y, z'

loop_
  _atom_site_type_symbol
  _atom_site_label
  _atom_site_symmetry_multiplicity
  _atom_site_fract_x
  _atom_site_fract_y
  _atom_site_fract_z
  _atom_site_occupancy
  Eu  Eu1       1.0  0.3819491890797471  0.14464001129511453  0.866352194021671  1.0000
  Eu  Eu2       1.0  0.5500276038497922  0.8591449759765357  0.19700916908500235  1.0000
  Eu  Eu3       1.0  0.37488766486081226  0.04426494506204309  0.6431327725174921  1.0000
  Eu  Eu4       1.0  0.5495737621772621  0.008558353314473743  0.4370741733326719  1.0000
  Eu  Eu5       1.0  0.30344264862957204  0.3556578599490552  0.23580507381416754  1.0000
  Eu  Eu6       1.0  0.7486118243436571  0.6158947578800796  0.6818113240790215  1.0000
  Eu  Eu7       1.0  0.10292531719692657  0.8227636648207749  0.1837345617827749  1.0000
  Eu  Eu8       1.0  0.9571168539684756  0.15904134534542155  0.7996646815641802  1.0000
  Eu  Eu9       1.0  0.8637417712163804  0.9827548700603876  0.5275226045826062  1.0000
  Eu  Eu10      1.0  0.0009988455163581185  0.03686652422887663  0.02881202712206104  1.0000
  Cd  Cd1       1.0  0.4642123484515483  0.2706759553043795  0.47951266654722907  1.0000
  Cd  Cd2       1.0  0.9516223383040238  0.30254706189703673  0.6077170878229708  1.0000
  Cd  Cd3       1.0  0.7050102194918737  0.19033939900909094  0.051753500909630185  1.0000
  Cd  Cd4       1.0  0.39002024833296756  0.7795813666389232  0.8853507860508716  1.0000
  Sb  Sb1       1.0  0.2225455518783226  0.48043593113404787  0.40389737294340244  1.0000
  Sb  Sb2       1.0  0.9259666841407439  0.5430910691553676  0.5148037307884855  1.0000
  Sb  Sb3       1.0  0.3179173665228574  0.5589655733261732  0.010253073216846043  1.0000
  Sb  Sb4       1.0  0.03030609531883331  0.6419645107924412  0.968601084022919  1.0000
  Sb  Sb5       1.0  0.016846326029645864  0.921859224441389  0.38086448634243775  1.0000
  Sb  Sb6       1.0  0.4450703219183589  0.5610515532262171  0.6616231876515031  1.0000
  Sb  Sb7       1.0  0.6219889443814868  0.476008900618221  0.07615452165232528  1.0000
  Sb  Sb8       1.0  0.586183213563635  0.624382286842602  0.8482869738191336  1.0000
  Sb  Sb9       1.0  0.7858114143350069  0.324565225153787  0.24004866432620714  1.0000
  Sb  Sb10      1.0  0.868005264067772  0.4046235043399435  0.7660339117392908  1.0000
  O   O1        1.0  0.894608721061079  0.037053510772683734  0.17912627425210756  1.0000
  O   O2        1.0  0.2178974793716858  0.035332957169060424  0.7260070435890738  1.0000
data_image190
_chemical_formula_structural       Eu10Cd4Sb10O2
_chemical_formula_sum              "Eu10 Cd4 Sb10 O2"
_cell_length_a       11.24426501306804
_cell_length_b       11.24426501306804
_cell_length_c       14.850709
_cell_angle_alpha    90.0
_cell_angle_beta     90.0
_cell_angle_gamma    155.89846091665316

_space_group_name_H-M_alt    "P 1"
_space_group_IT_number       1

loop_
  _space_group_symop_operation_xyz
  'x, y, z'

loop_
  _atom_site_type_symbol
  _atom_site_label
  _atom_site_symmetry_multiplicity
  _atom_site_fract_x
  _atom_site_fract_y
  _atom_site_fract_z
  _atom_site_occupancy
  Eu  Eu1       1.0  0.3106892834268414  0.06869782433568408  0.8895612459240148  1.0000
  Eu  Eu2       1.0  0.527779875448517  0.8159815636962758  0.19486249095152638  1.0000
  Eu  Eu3       1.0  0.3869462863857815  0.025458102467799823  0.6714870152857736  1.0000
  Eu  Eu4       1.0  0.6015835886496983  0.05703939913869793  0.4316482312705272  1.0000
  Eu  Eu5       1.0  0.35308269585240226  0.4021103870567619  0.27260593808812433  1.0000
  Eu  Eu6       1.0  0.6644111146687757  0.5539817343460919  0.6625731150904187  1.0000
  Eu  Eu7       1.0  0.04808669642895837  0.7629896211145752  0.19756611864622933  1.0000
  Eu  Eu8       1.0  0.9694910473025414  0.19269519679182925  0.818179826187463  1.0000
  Eu  Eu9       1.0  0.9770789998745414  0.07827641935935765  0.5205020289729956  1.0000
  Eu  Eu10      1.0  0.04287133719124574  0.06419063247682925  0.02983114021565957  1.0000
  Cd  Cd1       1.0  0.47216261440580387  0.31168741231103486  0.46951652411197214  1.0000
  Cd  Cd2       1.0  0.013926300458204836  0.39737645070670435  0.6026528599148662  1.0000
  Cd  Cd3       1.0  0.7132583081934837  0.15861098293909373  0.031034260645738828  1.0000
  Cd  Cd4       1.0  0.45112531767289504  0.8560565752958288  0.8716070170550667  1.0000
  Sb  Sb1       1.0  0.308060504327865  0.5714162961450094  0.40736189623408514  1.0000
  Sb  Sb2       1.0  0.9618227509906759  0.5831404305546597  0.4943467894430963  1.0000
  Sb  Sb3       1.0  0.273030524691142  0.5130404744450131  0.01646868793675955  1.0000
  Sb  Sb4       1.0  0.05982166244529052  0.6253288182471358  0.9669759541497206  1.0000
  Sb  Sb5       1.0  0.9619645227086179  0.8255651216616973  0.37002146947585673  1.0000
  Sb  Sb6       1.0  0.37371433556736333  0.5549445846521954  0.6354130939113408  1.0000
  Sb  Sb7       1.0  0.5770123534315322  0.43861384548728355  0.06335896118180927  1.0000
  Sb  Sb8       1.0  0.4984770210546787  0.5551771192753139  0.8869948379348315  1.0000
  Sb  Sb9       1.0  0.7214330207357166  0.23913132465722706  0.20767159116048026  1.0000
  Sb  Sb10      1.0  0.8813051189721768  0.46067029417618394  0.7667889245551206  1.0000
  O   O1        1.0  0.9790322209090315  0.09698335716883891  0.1713927874587199  1.0000
  O   O2        1.0  0.2358473242237438  0.07458604049178388  0.662185247397355  1.0000
data_image191
_chemical_formula_structural       Eu10Cd4Sb10O2
_chemical_formula_sum              "Eu10 Cd4 Sb10 O2"
_cell_length_a       11.24426501306804
_cell_length_b       11.24426501306804
_cell_length_c       14.850709
_cell_angle_alpha    90.0
_cell_angle_beta     90.0
_cell_angle_gamma    155.89846091665316

_space_group_name_H-M_alt    "P 1"
_space_group_IT_number       1

loop_
  _space_group_symop_operation_xyz
  'x, y, z'

loop_
  _atom_site_type_symbol
  _atom_site_label
  _atom_site_symmetry_multiplicity
  _atom_site_fract_x
  _atom_site_fract_y
  _atom_site_fract_z
  _atom_site_occupancy
  Eu  Eu1       1.0  0.278831616039632  0.07391592599777998  0.8911066204335983  1.0000
  Eu  Eu2       1.0  0.6241833333878622  0.8888564276178164  0.20106789763322613  1.0000
  Eu  Eu3       1.0  0.4186144996620404  0.024688148563096375  0.656121652432556  1.0000
  Eu  Eu4       1.0  0.6025565687746902  0.07444034991186754  0.4016328158598618  1.0000
  Eu  Eu5       1.0  0.3808813333318952  0.3682194550781555  0.2772346121164507  1.0000
  Eu  Eu6       1.0  0.6154448630256162  0.5353999694255729  0.6964446923486978  1.0000
  Eu  Eu7       1.0  0.10239565312012176  0.8105287140278109  0.20319470184040034  1.0000
  Eu  Eu8       1.0  0.9340045111480286  0.16767707026482673  0.8103347350913286  1.0000
  Eu  Eu9       1.0  0.9156637573051963  0.023039447953839418  0.4880477226466355  1.0000
  Eu  Eu10      1.0  0.930716525296022  0.9806314194256276  0.04534255572262683  1.0000
  Cd  Cd1       1.0  0.4309895107640359  0.2583225543849013  0.44880337850951524  1.0000
  Cd  Cd2       1.0  0.046043940481182745  0.4771333406971332  0.6076197870216721  1.0000
  Cd  Cd3       1.0  0.6727435853448748  0.07706836720714923  0.037401034499075884  1.0000
  Cd  Cd4       1.0  0.4111713863562673  0.8503221180378372  0.8332838491190929  1.0000
  Sb  Sb1       1.0  0.4165405512045137  0.634826793579841  0.3786939717088173  1.0000
  Sb  Sb2       1.0  0.04724355614313241  0.7061000681607827  0.5123690309941581  1.0000
  Sb  Sb3       1.0  0.3293109660752973  0.5444480460744558  0.00427874598146315  1.0000
  Sb  Sb4       1.0  0.06643239100540906  0.6601140541586659  0.9992418745175652  1.0000
  Sb  Sb5       1.0  0.9448480471058734  0.7752937769549567  0.3726029489598695  1.0000
  Sb  Sb6       1.0  0.32487759774661856  0.5134217555006986  0.6402322558355417  1.0000
  Sb  Sb7       1.0  0.5990264484474493  0.4494543115932035  0.0743061521718142  1.0000
  Sb  Sb8       1.0  0.4792635474745024  0.4871756644241387  0.8879556491387879  1.0000
  Sb  Sb9       1.0  0.7069903887181122  0.26437342644870143  0.1998421745909009  1.0000
  Sb  Sb10      1.0  0.8570942562079974  0.46121236119689285  0.8023812353030537  1.0000
  O   O1        1.0  0.11651779541782308  0.21743434927841138  0.18348085080026721  1.0000
  O   O2        1.0  0.25480774688634794  0.060595603452551244  0.72538306468469  1.0000
data_image192
_chemical_formula_structural       Eu10Cd4Sb10O2
_chemical_formula_sum              "Eu10 Cd4 Sb10 O2"
_cell_length_a       11.24426501306804
_cell_length_b       11.24426501306804
_cell_length_c       14.850709
_cell_angle_alpha    90.0
_cell_angle_beta     90.0
_cell_angle_gamma    155.89846091665316

_space_group_name_H-M_alt    "P 1"
_space_group_IT_number       1

loop_
  _space_group_symop_operation_xyz
  'x, y, z'

loop_
  _atom_site_type_symbol
  _atom_site_label
  _atom_site_symmetry_multiplicity
  _atom_site_fract_x
  _atom_site_fract_y
  _atom_site_fract_z
  _atom_site_occupancy
  Eu  Eu1       1.0  0.22779384089679783  0.019543289008760987  0.8804029127160208  1.0000
  Eu  Eu2       1.0  0.7883862389473558  0.033697776714429306  0.22748278489330048  1.0000
  Eu  Eu3       1.0  0.464010517775935  0.09285168221730779  0.6664689376972999  1.0000
  Eu  Eu4       1.0  0.6753285318108161  0.19210147897918262  0.3690291223701558  1.0000
  Eu  Eu5       1.0  0.3108887645168128  0.29932323100136055  0.2776087645257939  1.0000
  Eu  Eu6       1.0  0.5607210391798594  0.47286056248792047  0.7108544287205336  1.0000
  Eu  Eu7       1.0  0.2026349121826995  0.9205125770778969  0.19379097896283382  1.0000
  Eu  Eu8       1.0  0.9611133517682795  0.18594206276706848  0.8012688550835824  1.0000
  Eu  Eu9       1.0  0.8834669157591739  0.949023135822834  0.4959279787590716  1.0000
  Eu  Eu10      1.0  0.9248125897538363  0.964870888823988  0.051134269838504845  1.0000
  Cd  Cd1       1.0  0.4376520406509661  0.27441422730243364  0.47553868052790516  1.0000
  Cd  Cd2       1.0  0.06882101770257806  0.4810612628141947  0.5665861491961327  1.0000
  Cd  Cd3       1.0  0.6432308772942505  0.026347920999484045  0.02078436946028284  1.0000
  Cd  Cd4       1.0  0.3594010217696962  0.8472114598920145  0.8302463039560787  1.0000
  Sb  Sb1       1.0  0.29452791503262743  0.5298206954673396  0.38744468952287675  1.0000
  Sb  Sb2       1.0  0.10410100243530068  0.7428095465742336  0.5050752630611365  1.0000
  Sb  Sb3       1.0  0.3515504552028259  0.5670150632797822  0.9925917729148871  1.0000
  Sb  Sb4       1.0  0.01996019347004731  0.631129933948332  0.016332082128893033  1.0000
  Sb  Sb5       1.0  0.939453993836167  0.8028093091319345  0.36584169462203986  1.0000
  Sb  Sb6       1.0  0.36295094445755194  0.5533943996416099  0.6504740797132981  1.0000
  Sb  Sb7       1.0  0.5729877783993395  0.4092136001381152  0.06423175997786923  1.0000
  Sb  Sb8       1.0  0.5240972363562295  0.5203395391195086  0.9102747490203263  1.0000
  Sb  Sb9       1.0  0.7103698688532419  0.21685170525210506  0.17186904725256827  1.0000
  Sb  Sb10      1.0  0.7801319555362478  0.4186234324253283  0.8310863028435949  1.0000
  O   O1        1.0  0.7136560735048545  0.7509612625943154  0.22363795119544147  1.0000
  O   O2        1.0  0.044251331458386396  0.8568773476904821  0.713893437965052  1.0000
data_image193
_chemical_formula_structural       Eu10Cd4Sb10O2
_chemical_formula_sum              "Eu10 Cd4 Sb10 O2"
_cell_length_a       11.24426501306804
_cell_length_b       11.24426501306804
_cell_length_c       14.850709
_cell_angle_alpha    90.0
_cell_angle_beta     90.0
_cell_angle_gamma    155.89846091665316

_space_group_name_H-M_alt    "P 1"
_space_group_IT_number       1

loop_
  _space_group_symop_operation_xyz
  'x, y, z'

loop_
  _atom_site_type_symbol
  _atom_site_label
  _atom_site_symmetry_multiplicity
  _atom_site_fract_x
  _atom_site_fract_y
  _atom_site_fract_z
  _atom_site_occupancy
  Eu  Eu1       1.0  0.17079706056593516  0.9779945066302088  0.8802307055859391  1.0000
  Eu  Eu2       1.0  0.8547041846904311  0.1104974061122963  0.2255121491146552  1.0000
  Eu  Eu3       1.0  0.43604167729810334  0.09318013986187675  0.6645336119328025  1.0000
  Eu  Eu4       1.0  0.6708503865991026  0.21917279112070576  0.36243071802083093  1.0000
  Eu  Eu5       1.0  0.3075016226284859  0.3192504717411557  0.2356329427936583  1.0000
  Eu  Eu6       1.0  0.6142129675587671  0.5133882904564928  0.6962709673222721  1.0000
  Eu  Eu7       1.0  0.1329162554508389  0.8258256961858956  0.20157318993181988  1.0000
  Eu  Eu8       1.0  0.9274066951646305  0.11328261847124606  0.8158342603563661  1.0000
  Eu  Eu9       1.0  0.8258865871943195  0.9105797908902392  0.5268773844244484  1.0000
  Eu  Eu10      1.0  0.03081115453675053  0.031405986707996734  0.05217075175026471  1.0000
  Cd  Cd1       1.0  0.40272153378295505  0.27174299986852607  0.5191429700441926  1.0000
  Cd  Cd2       1.0  0.10435032613110322  0.483478574792814  0.5406030188873183  1.0000
  Cd  Cd3       1.0  0.6736502885506102  0.05327025421239484  0.9978664287561021  1.0000
  Cd  Cd4       1.0  0.33265616369471507  0.7990490766275449  0.8477674888158039  1.0000
  Sb  Sb1       1.0  0.20355449847965335  0.4990857858007892  0.38196755482931005  1.0000
  Sb  Sb2       1.0  0.09786852158390734  0.7314748193045987  0.4892511842943117  1.0000
  Sb  Sb3       1.0  0.3496041514457484  0.5642171740182789  0.9991815698120098  1.0000
  Sb  Sb4       1.0  0.06123102776041197  0.6243701613278045  0.0318420837508504  1.0000
  Sb  Sb5       1.0  0.8749448093443305  0.7498930842623565  0.3713908445787551  1.0000
  Sb  Sb6       1.0  0.43494250893922226  0.6537950759194276  0.6585624099631209  1.0000
  Sb  Sb7       1.0  0.5703646666280281  0.3784079962868328  0.06801057183991448  1.0000
  Sb  Sb8       1.0  0.6020356932085776  0.6081484016411904  0.9048627599856509  1.0000
  Sb  Sb9       1.0  0.6978947104933558  0.20873334121745699  0.14928489622051783  1.0000
  Sb  Sb10      1.0  0.770930940422266  0.38579755233495294  0.8472250399463348  1.0000
  O   O1        1.0  0.8047299509052535  0.8446700145016245  0.22267373157931172  1.0000
  O   O2        1.0  0.13722503914344145  0.9530427391451364  0.7127753315407697  1.0000
data_image194
_chemical_formula_structural       Eu10Cd4Sb10O2
_chemical_formula_sum              "Eu10 Cd4 Sb10 O2"
_cell_length_a       11.24426501306804
_cell_length_b       11.24426501306804
_cell_length_c       14.850709
_cell_angle_alpha    90.0
_cell_angle_beta     90.0
_cell_angle_gamma    155.89846091665316

_space_group_name_H-M_alt    "P 1"
_space_group_IT_number       1

loop_
  _space_group_symop_operation_xyz
  'x, y, z'

loop_
  _atom_site_type_symbol
  _atom_site_label
  _atom_site_symmetry_multiplicity
  _atom_site_fract_x
  _atom_site_fract_y
  _atom_site_fract_z
  _atom_site_occupancy
  Eu  Eu1       1.0  0.22442868076022632  0.037614727725643796  0.8748285398776744  1.0000
  Eu  Eu2       1.0  0.7894346026790543  0.02907159350568933  0.227464764826265  1.0000
  Eu  Eu3       1.0  0.40735495338594957  0.04180068437636776  0.6648845024807232  1.0000
  Eu  Eu4       1.0  0.6390732535140814  0.1941503336623851  0.3807395402414897  1.0000
  Eu  Eu5       1.0  0.337524854851073  0.34206592276381564  0.247490283533487  1.0000
  Eu  Eu6       1.0  0.681673892320222  0.5945897597112328  0.6910977727673201  1.0000
  Eu  Eu7       1.0  0.9605695241179771  0.638907650721868  0.22264296442597345  1.0000
  Eu  Eu8       1.0  0.8961286400633067  0.06906904158421086  0.827236689294848  1.0000
  Eu  Eu9       1.0  0.8502104834201221  0.9449159919309472  0.5195106220480933  1.0000
  Eu  Eu10      1.0  0.013438724122349071  0.020591506937884908  0.03838445372907355  1.0000
  Cd  Cd1       1.0  0.3557601126789128  0.21857086730788353  0.48889914596036665  1.0000
  Cd  Cd2       1.0  0.12549625495386493  0.4950331766761249  0.5601732847621104  1.0000
  Cd  Cd3       1.0  0.7973505628110841  0.15222258714586312  0.000986701059596106  1.0000
  Cd  Cd4       1.0  0.2880162880220493  0.7512488291562336  0.8312930674470285  1.0000
  Sb  Sb1       1.0  0.29810525259311627  0.6173214438249838  0.3702175395358455  1.0000
  Sb  Sb2       1.0  0.16560848377354592  0.8527268232688331  0.48494251495448104  1.0000
  Sb  Sb3       1.0  0.4047424076282764  0.6107079570192899  0.01608235622416561  1.0000
  Sb  Sb4       1.0  0.17940377405869573  0.7493597052060116  0.021493667712374265  1.0000
  Sb  Sb5       1.0  0.7599258359090306  0.6321615870578869  0.3762139112949154  1.0000
  Sb  Sb6       1.0  0.4524123589540846  0.7535721431363376  0.7032636120892213  1.0000
  Sb  Sb7       1.0  0.6243857636523723  0.41564861630549  0.05042862318424437  1.0000
  Sb  Sb8       1.0  0.5231789149225066  0.5284476196815758  0.8685468096198401  1.0000
  Sb  Sb9       1.0  0.6600499183777602  0.13872725330249258  0.15458886601185773  1.0000
  Sb  Sb10      1.0  0.7189178731544241  0.3102548602212409  0.8388697745408084  1.0000
  O   O1        1.0  0.9258071597485407  0.9545207990174592  0.1907947934385249  1.0000
  O   O2        1.0  0.3525666889039712  0.15642336387687336  0.7263197785803205  1.0000
data_image195
_chemical_formula_structural       Eu10Cd4Sb10O2
_chemical_formula_sum              "Eu10 Cd4 Sb10 O2"
_cell_length_a       11.24426501306804
_cell_length_b       11.24426501306804
_cell_length_c       14.850709
_cell_angle_alpha    90.0
_cell_angle_beta     90.0
_cell_angle_gamma    155.89846091665316

_space_group_name_H-M_alt    "P 1"
_space_group_IT_number       1

loop_
  _space_group_symop_operation_xyz
  'x, y, z'

loop_
  _atom_site_type_symbol
  _atom_site_label
  _atom_site_symmetry_multiplicity
  _atom_site_fract_x
  _atom_site_fract_y
  _atom_site_fract_z
  _atom_site_occupancy
  Eu  Eu1       1.0  0.263911931680348  0.018931033253418866  0.875391847376598  1.0000
  Eu  Eu2       1.0  0.7343897211603153  0.9662657862564829  0.22843297225441458  1.0000
  Eu  Eu3       1.0  0.40098893188123175  0.014010959682841264  0.6530933928780314  1.0000
  Eu  Eu4       1.0  0.6991489167500988  0.24592616989773708  0.39332444808095485  1.0000
  Eu  Eu5       1.0  0.35885141014671285  0.3608932693905683  0.24995130686260422  1.0000
  Eu  Eu6       1.0  0.6305379654915102  0.5617852452119869  0.6784846020584051  1.0000
  Eu  Eu7       1.0  0.9556564730190314  0.6358818592648755  0.20119560664968492  1.0000
  Eu  Eu8       1.0  0.9266266156846984  0.0960743150428231  0.8141781573091283  1.0000
  Eu  Eu9       1.0  0.8236659145219702  0.9800430535034118  0.5244791330739623  1.0000
  Eu  Eu10      1.0  0.9811885138595978  0.9946008525922666  0.04994688007479846  1.0000
  Cd  Cd1       1.0  0.3225382221046566  0.26705122253165303  0.4916997548405429  1.0000
  Cd  Cd2       1.0  0.1181806588917331  0.5080331989056194  0.5400230711723152  1.0000
  Cd  Cd3       1.0  0.9110537459939909  0.2473123244009673  0.9766735117716611  1.0000
  Cd  Cd4       1.0  0.27929846914686657  0.7195211154346431  0.8765974530210998  1.0000
  Sb  Sb1       1.0  0.3568988567505491  0.6871652193432891  0.3899141287875572  1.0000
  Sb  Sb2       1.0  0.028475027867758906  0.7108479999016379  0.48976773870355733  1.0000
  Sb  Sb3       1.0  0.43774252006809333  0.622977330114335  0.03642613927461476  1.0000
  Sb  Sb4       1.0  0.1890502375513061  0.7560068146600645  0.023180500636130086  1.0000
  Sb  Sb5       1.0  0.7896923201110958  0.6643874624849658  0.377404095088161  1.0000
  Sb  Sb6       1.0  0.4477684831385537  0.7469823795515502  0.7128479905239814  1.0000
  Sb  Sb7       1.0  0.6407562162863711  0.4481648835218398  0.023071567309967445  1.0000
  Sb  Sb8       1.0  0.5341132714660888  0.5108723645749691  0.8879903262602034  1.0000
  Sb  Sb9       1.0  0.6340575943617909  0.10204108705886011  0.14934905227361328  1.0000
  Sb  Sb10      1.0  0.7463248274776126  0.32587942440036505  0.8294123408135143  1.0000
  O   O1        1.0  0.8051542822782254  0.8333238657869957  0.18717576381542075  1.0000
  O   O2        1.0  0.09593167691952481  0.9902586730570402  0.6792451798341995  1.0000
data_image196
_chemical_formula_structural       Eu10Cd4Sb10O2
_chemical_formula_sum              "Eu10 Cd4 Sb10 O2"
_cell_length_a       11.24426501306804
_cell_length_b       11.24426501306804
_cell_length_c       14.850709
_cell_angle_alpha    90.0
_cell_angle_beta     90.0
_cell_angle_gamma    155.89846091665316

_space_group_name_H-M_alt    "P 1"
_space_group_IT_number       1

loop_
  _space_group_symop_operation_xyz
  'x, y, z'

loop_
  _atom_site_type_symbol
  _atom_site_label
  _atom_site_symmetry_multiplicity
  _atom_site_fract_x
  _atom_site_fract_y
  _atom_site_fract_z
  _atom_site_occupancy
  Eu  Eu1       1.0  0.16903802284471503  0.9382004873916082  0.8548417006626942  1.0000
  Eu  Eu2       1.0  0.7356656617307592  0.9737533484692271  0.22426928710615548  1.0000
  Eu  Eu3       1.0  0.43653259909246384  0.06835013178729106  0.6354416744649628  1.0000
  Eu  Eu4       1.0  0.7280162878458947  0.22308971484526463  0.391169165778525  1.0000
  Eu  Eu5       1.0  0.4129499085902524  0.3743213134858544  0.23642400084901363  1.0000
  Eu  Eu6       1.0  0.6117902488096133  0.528759710302685  0.6685751458726451  1.0000
  Eu  Eu7       1.0  0.012073581413467004  0.7139644670691196  0.21355016030560564  1.0000
  Eu  Eu8       1.0  0.9885636445290017  0.14661574558698912  0.7951623955821228  1.0000
  Eu  Eu9       1.0  0.7833294591607494  0.011043154503281123  0.5203798763738753  1.0000
  Eu  Eu10      1.0  0.013537289681657499  0.9974279251643566  0.06650630998280621  1.0000
  Cd  Cd1       1.0  0.2067871919216147  0.22634598778331824  0.48847778896863536  1.0000
  Cd  Cd2       1.0  0.13618338466493773  0.5502157815139561  0.5439522531886493  1.0000
  Cd  Cd3       1.0  0.8467792235442767  0.15300548018952484  0.977514252349746  1.0000
  Cd  Cd4       1.0  0.3901652472683021  0.8020134675780874  0.903268417947781  1.0000
  Sb  Sb1       1.0  0.32904174198609937  0.6468575500269992  0.36359728402675473  1.0000
  Sb  Sb2       1.0  0.8622570753046755  0.5350952262822798  0.525474074238922  1.0000
  Sb  Sb3       1.0  0.4396334850616146  0.6598753056054371  0.04924851003845902  1.0000
  Sb  Sb4       1.0  0.1645294876687478  0.7376465471417902  0.031468704524894475  1.0000
  Sb  Sb5       1.0  0.8850421030200948  0.7695661131979062  0.38705610439005983  1.0000
  Sb  Sb6       1.0  0.3074051024701337  0.6318895556844593  0.7012109788584692  1.0000
  Sb  Sb7       1.0  0.600303255674529  0.38999582183260506  0.05324957563140961  1.0000
  Sb  Sb8       1.0  0.5721137343456112  0.5232459486112435  0.898085237190697  1.0000
  Sb  Sb9       1.0  0.6654333453875451  0.15370804382069012  0.14788638563802722  1.0000
  Sb  Sb10      1.0  0.8481595652987903  0.38311579303554893  0.8035046846222234  1.0000
  O   O1        1.0  0.8952636598698495  0.9465969632678797  0.22026586208503204  1.0000
  O   O2        1.0  0.23925349237315394  0.08056109385628635  0.7198541865342123  1.0000
data_image197
_chemical_formula_structural       Eu10Cd4Sb10O2
_chemical_formula_sum              "Eu10 Cd4 Sb10 O2"
_cell_length_a       11.24426501306804
_cell_length_b       11.24426501306804
_cell_length_c       14.850709
_cell_angle_alpha    90.0
_cell_angle_beta     90.0
_cell_angle_gamma    155.89846091665316

_space_group_name_H-M_alt    "P 1"
_space_group_IT_number       1

loop_
  _space_group_symop_operation_xyz
  'x, y, z'

loop_
  _atom_site_type_symbol
  _atom_site_label
  _atom_site_symmetry_multiplicity
  _atom_site_fract_x
  _atom_site_fract_y
  _atom_site_fract_z
  _atom_site_occupancy
  Eu  Eu1       1.0  0.1787596445358762  0.9524862980483042  0.8685695815006533  1.0000
  Eu  Eu2       1.0  0.7837728340820319  0.03699814769470211  0.21095923238830278  1.0000
  Eu  Eu3       1.0  0.40637822096592546  0.05395287738567235  0.6259342856775234  1.0000
  Eu  Eu4       1.0  0.7301813865344052  0.2030838721013104  0.39189769430596155  1.0000
  Eu  Eu5       1.0  0.4290442131911698  0.4035103824650599  0.2536819209391551  1.0000
  Eu  Eu6       1.0  0.6153375314866498  0.5054282511109777  0.6586363926258413  1.0000
  Eu  Eu7       1.0  0.017708693694669667  0.7108884449429311  0.23836247372209982  1.0000
  Eu  Eu8       1.0  0.00688981134288813  0.13046278545486945  0.8237936237120197  1.0000
  Eu  Eu9       1.0  0.7204386370260665  0.973144776792279  0.536889839387024  1.0000
  Eu  Eu10      1.0  0.023443370790240625  0.019712264485402357  0.04877292689266518  1.0000
  Cd  Cd1       1.0  0.23681826635765646  0.2807452526396804  0.4728954329823897  1.0000
  Cd  Cd2       1.0  0.16672110788070788  0.6085214415960687  0.5198550523763739  1.0000
  Cd  Cd3       1.0  0.8988149884670926  0.2310364172422814  0.9770525811709025  1.0000
  Cd  Cd4       1.0  0.4088937739555391  0.8299903726187239  0.8683900740938124  1.0000
  Sb  Sb1       1.0  0.258945617527204  0.5827925584732797  0.3352253714293335  1.0000
  Sb  Sb2       1.0  0.8812539966378973  0.5743912769942152  0.5111100143718231  1.0000
  Sb  Sb3       1.0  0.3644689201759297  0.5519060377760786  0.054614145959586156  1.0000
  Sb  Sb4       1.0  0.17686668056724933  0.7572709283417265  0.019390565320004827  1.0000
  Sb  Sb5       1.0  0.853496710639839  0.7342125143069594  0.39177472804937363  1.0000
  Sb  Sb6       1.0  0.2836815954155126  0.5837657903654758  0.7016599206023898  1.0000
  Sb  Sb7       1.0  0.6256905124745412  0.40271235282585416  0.08800084073707569  1.0000
  Sb  Sb8       1.0  0.57619941735655  0.5074855452208438  0.9046922850396831  1.0000
  Sb  Sb9       1.0  0.6751411157042678  0.18764083881211194  0.15616568181178975  1.0000
  Sb  Sb10      1.0  0.843292089856526  0.3398566095162751  0.8054981684994748  1.0000
  O   O1        1.0  0.8403390955612655  0.8900875324471982  0.21108652465487593  1.0000
  O   O2        1.0  0.15946776516866126  0.03419106913182197  0.7154868677175065  1.0000
data_image198
_chemical_formula_structural       Eu10Cd4Sb10O2
_chemical_formula_sum              "Eu10 Cd4 Sb10 O2"
_cell_length_a       11.24426501306804
_cell_length_b       11.24426501306804
_cell_length_c       14.850709
_cell_angle_alpha    90.0
_cell_angle_beta     90.0
_cell_angle_gamma    155.89846091665316

_space_group_name_H-M_alt    "P 1"
_space_group_IT_number       1

loop_
  _space_group_symop_operation_xyz
  'x, y, z'

loop_
  _atom_site_type_symbol
  _atom_site_label
  _atom_site_symmetry_multiplicity
  _atom_site_fract_x
  _atom_site_fract_y
  _atom_site_fract_z
  _atom_site_occupancy
  Eu  Eu1       1.0  0.22865732158868526  0.9672004707563265  0.8587254291771775  1.0000
  Eu  Eu2       1.0  0.7983739190085214  0.061292072997833014  0.18906039984537382  1.0000
  Eu  Eu3       1.0  0.4250192455677854  0.08255317173442711  0.6539827133812661  1.0000
  Eu  Eu4       1.0  0.5639997076140737  0.07095430902810373  0.3761036099743511  1.0000
  Eu  Eu5       1.0  0.4301915435492534  0.4689807826557822  0.24959248544729093  1.0000
  Eu  Eu6       1.0  0.620068371715587  0.5230251217898386  0.6577256080756012  1.0000
  Eu  Eu7       1.0  0.13936539917020233  0.7957453658728542  0.23888646246275008  1.0000
  Eu  Eu8       1.0  0.049948658465755136  0.14177913799991507  0.8419002042394699  1.0000
  Eu  Eu9       1.0  0.6995832685697911  0.873801819421985  0.531845437569187  1.0000
  Eu  Eu10      1.0  0.9989697368292141  0.9785106313587165  0.04737309042089373  1.0000
  Cd  Cd1       1.0  0.3105093851138115  0.3536999994018045  0.4526707702709365  1.0000
  Cd  Cd2       1.0  0.19389706145896268  0.6382315284024347  0.5226573051782418  1.0000
  Cd  Cd3       1.0  0.7951771360520148  0.21175028069298119  0.001588730124088473  1.0000
  Cd  Cd4       1.0  0.4069829685224686  0.7879680191829838  0.8583494241604703  1.0000
  Sb  Sb1       1.0  0.2842613511891141  0.5669100153227488  0.3174030408169602  1.0000
  Sb  Sb2       1.0  0.8638016376283852  0.57338542990375  0.5121866823159437  1.0000
  Sb  Sb3       1.0  0.33133307075273866  0.5442636500658791  0.07161988033258347  1.0000
  Sb  Sb4       1.0  0.1832065153495476  0.7576219414138424  0.02977890769009295  1.0000
  Sb  Sb5       1.0  0.8111238798814085  0.7177799008869507  0.4005155290791433  1.0000
  Sb  Sb6       1.0  0.2910759204483612  0.5494009260472522  0.7074925554889642  1.0000
  Sb  Sb7       1.0  0.6457564759438561  0.4345377427773628  0.08057910773122229  1.0000
  Sb  Sb8       1.0  0.5556652511824112  0.5019673057988527  0.9163647633472093  1.0000
  Sb  Sb9       1.0  0.6514747549669353  0.15885710920799  0.17029271111836605  1.0000
  Sb  Sb10      1.0  0.8638840107868557  0.41388798549497713  0.77934691648835  1.0000
  O   O1        1.0  0.9461400597426874  0.9642983285682802  0.22294170156502308  1.0000
  O   O2        1.0  0.1306850537142605  0.9446229522050339  0.7153481824683464  1.0000
data_image199
_chemical_formula_structural       Eu10Cd4Sb10O2
_chemical_formula_sum              "Eu10 Cd4 Sb10 O2"
_cell_length_a       11.24426501306804
_cell_length_b       11.24426501306804
_cell_length_c       14.850709
_cell_angle_alpha    90.0
_cell_angle_beta     90.0
_cell_angle_gamma    155.89846091665316

_space_group_name_H-M_alt    "P 1"
_space_group_IT_number       1

loop_
  _space_group_symop_operation_xyz
  'x, y, z'

loop_
  _atom_site_type_symbol
  _atom_site_label
  _atom_site_symmetry_multiplicity
  _atom_site_fract_x
  _atom_site_fract_y
  _atom_site_fract_z
  _atom_site_occupancy
  Eu  Eu1       1.0  0.24338968068849082  0.9501445936907769  0.8453380084995584  1.0000
  Eu  Eu2       1.0  0.7911633051635578  0.028333497274161568  0.1889660921988412  1.0000
  Eu  Eu3       1.0  0.3554458670259653  0.9892906393836367  0.6370144435867543  1.0000
  Eu  Eu4       1.0  0.5518165319098145  0.06650092552250286  0.3751903632364469  1.0000
  Eu  Eu5       1.0  0.4323393541049554  0.4578723900577269  0.20937801251141994  1.0000
  Eu  Eu6       1.0  0.6287420798291752  0.5569346430840058  0.6856166770344634  1.0000
  Eu  Eu7       1.0  0.12040074260777989  0.7966145210395732  0.25084321446549573  1.0000
  Eu  Eu8       1.0  0.9440984127910431  0.023351653409676987  0.8015449697831348  1.0000
  Eu  Eu9       1.0  0.6941451561670224  0.8794984986511756  0.5224393959038762  1.0000
  Eu  Eu10      1.0  0.053542127611436015  0.011437104018032246  0.03911144942061814  1.0000
  Cd  Cd1       1.0  0.2958143131422447  0.3304016660283788  0.47254940491438197  1.0000
  Cd  Cd2       1.0  0.2239465156131965  0.6309294196360032  0.5297183815387687  1.0000
  Cd  Cd3       1.0  0.8029915156180799  0.24047409110473025  0.005576566818589936  1.0000
  Cd  Cd4       1.0  0.37838661481315927  0.7684640531221433  0.8427068947288744  1.0000
  Sb  Sb1       1.0  0.29015511890703394  0.5904306420563546  0.3374372302298382  1.0000
  Sb  Sb2       1.0  0.8265574663293503  0.5497711608625399  0.525883448854284  1.0000
  Sb  Sb3       1.0  0.2887912405666804  0.5168524731792504  0.029742935268955592  1.0000
  Sb  Sb4       1.0  0.23274088120236683  0.8269089595791582  0.031997163729429845  1.0000
  Sb  Sb5       1.0  0.8775013813306913  0.815243526083145  0.42330306448881677  1.0000
  Sb  Sb6       1.0  0.37788532583181056  0.6093042905240302  0.7009331082543491  1.0000
  Sb  Sb7       1.0  0.6776689838564708  0.4671618254693474  0.11641246751412812  1.0000
  Sb  Sb8       1.0  0.5299160411553461  0.4818016671557939  0.9354555062192562  1.0000
  Sb  Sb9       1.0  0.6836379232690475  0.19782742837216896  0.18858045209211005  1.0000
  Sb  Sb10      1.0  0.8664550830183818  0.42226861610532423  0.7924900385630615  1.0000
  O   O1        1.0  0.9832899107912872  0.9895555600446984  0.19764135575844732  1.0000
  O   O2        1.0  0.16431363864475118  0.04148423099173628  0.7568476234887905  1.0000
data_image200
_chemical_formula_structural       Eu10Cd4Sb10O2
_chemical_formula_sum              "Eu10 Cd4 Sb10 O2"
_cell_length_a       11.24426501306804
_cell_length_b       11.24426501306804
_cell_length_c       14.850709
_cell_angle_alpha    90.0
_cell_angle_beta     90.0
_cell_angle_gamma    155.89846091665316

_space_group_name_H-M_alt    "P 1"
_space_group_IT_number       1

loop_
  _space_group_symop_operation_xyz
  'x, y, z'

loop_
  _atom_site_type_symbol
  _atom_site_label
  _atom_site_symmetry_multiplicity
  _atom_site_fract_x
  _atom_site_fract_y
  _atom_site_fract_z
  _atom_site_occupancy
  Eu  Eu1       1.0  0.27985874317146825  0.02560812293956009  0.846251165672815  1.0000
  Eu  Eu2       1.0  0.8544072255488556  0.09353460929192314  0.1704910827290496  1.0000
  Eu  Eu3       1.0  0.31229335555146986  0.8965599068057015  0.6451948815404822  1.0000
  Eu  Eu4       1.0  0.6155829826262148  0.12701669546754912  0.38452000936196623  1.0000
  Eu  Eu5       1.0  0.48262893297258214  0.49246933924510894  0.21457495351045835  1.0000
  Eu  Eu6       1.0  0.5630999892825009  0.4557539284634891  0.6925580218275434  1.0000
  Eu  Eu7       1.0  0.14943591199608972  0.8847463046418117  0.2785842455918953  1.0000
  Eu  Eu8       1.0  0.9180405837233115  0.006115415306491342  0.8133052737452168  1.0000
  Eu  Eu9       1.0  0.8024686119720471  0.01750565262270582  0.5154131603331459  1.0000
  Eu  Eu10      1.0  0.0337323621828832  0.9632624271110999  0.03637663082083418  1.0000
  Cd  Cd1       1.0  0.41776998644344127  0.464570017760632  0.49596052391197404  1.0000
  Cd  Cd2       1.0  0.06504511684343864  0.4578322921293987  0.5637393718403748  1.0000
  Cd  Cd3       1.0  0.8379929350947964  0.26984806821042817  0.9947174918393672  1.0000
  Cd  Cd4       1.0  0.438171798303718  0.8308276922880292  0.8426141591814965  1.0000
  Sb  Sb1       1.0  0.23455902605974055  0.5517602379480546  0.3603289727273196  1.0000
  Sb  Sb2       1.0  0.7720938105170245  0.5043971778952602  0.5016282947501739  1.0000
  Sb  Sb3       1.0  0.17864742632573583  0.3774334036662943  0.97276793492339  1.0000
  Sb  Sb4       1.0  0.17152307390116475  0.7943840691619739  0.015871400256384227  1.0000
  Sb  Sb5       1.0  0.9104680353310193  0.8409545309705199  0.3982444856828662  1.0000
  Sb  Sb6       1.0  0.34793024970145575  0.5691700716814592  0.7050041092656126  1.0000
  Sb  Sb7       1.0  0.6107419822215817  0.36841932278680634  0.1263202390613648  1.0000
  Sb  Sb8       1.0  0.5336961501004971  0.5034236904771239  0.9116768479560159  1.0000
  Sb  Sb9       1.0  0.7741750841559977  0.3071702107959615  0.19359709023395988  1.0000
  Sb  Sb10      1.0  0.8246669108981979  0.3582756564055855  0.8086741241357468  1.0000
  O   O1        1.0  0.046625643257057856  0.0727651669665392  0.1742091199912151  1.0000
  O   O2        1.0  0.05324322180437887  0.9598994504978164  0.728753928698329  1.0000
