data_image0
_chemical_formula_structural       Pr2P2H10C2O14
_chemical_formula_sum              "Pr2 P2 H10 C2 O14"
_cell_length_a       6.761788999999999
_cell_length_b       7.146483751908908
_cell_length_c       7.843598011864962
_cell_angle_alpha    110.54253585495134
_cell_angle_beta     95.79501476046597
_cell_angle_gamma    89.49575901902455

_space_group_name_H-M_alt    "P 1"
_space_group_IT_number       1

loop_
  _space_group_symop_operation_xyz
  'x, y, z'

loop_
  _atom_site_type_symbol
  _atom_site_label
  _atom_site_symmetry_multiplicity
  _atom_site_fract_x
  _atom_site_fract_y
  _atom_site_fract_z
  _atom_site_occupancy
  Pr  Pr1       1.0  0.132151  0.22329000000000002  0.935125  1.0000
  Pr  Pr2       1.0  0.867849  0.7767099999999999  0.06487500000000004  1.0000
  P   P1        1.0  0.6758609999999999  0.253565  0.018482000000000026  1.0000
  P   P2        1.0  0.324139  0.746435  0.9815180000000001  1.0000
  H   H1        1.0  0.550905  0.159353  0.43554000000000004  1.0000
  H   H2        1.0  0.44909499999999997  0.8406470000000001  0.56446  1.0000
  H   H3        1.0  0.7137869999999998  0.666788  0.6365350000000001  1.0000
  H   H4        1.0  0.28621299999999994  0.333212  0.3634649999999999  1.0000
  H   H5        1.0  0.8319329999999999  0.48150000000000004  0.6704240000000001  1.0000
  H   H6        1.0  0.6284569999999999  0.29075  0.197888  1.0000
  H   H7        1.0  0.16806699999999997  0.5185  0.3295759999999999  1.0000
  H   H8        1.0  0.46609699999999993  0.256496  0.623557  1.0000
  H   H9        1.0  0.3715429999999999  0.70925  0.802112  1.0000
  H   H10       1.0  0.5339029999999999  0.743504  0.3764430000000001  1.0000
  C   C1        1.0  0.065432  0.9106420000000001  0.5010970000000001  1.0000
  C   C2        1.0  0.9345679999999998  0.08935799999999999  0.498903  1.0000
  O   O1        1.0  0.8189169999999998  0.424775  0.025406999999999996  1.0000
  O   O2        1.0  0.8262699999999998  0.070772  0.35254299999999994  1.0000
  O   O3        1.0  0.17372999999999997  0.9292280000000002  0.6474569999999998  1.0000
  O   O4        1.0  0.43235799999999996  0.222148  0.49151799999999995  1.0000
  O   O5        1.0  0.7931159999999999  0.62164  0.728469  1.0000
  O   O6        1.0  0.20688399999999998  0.37836  0.271531  1.0000
  O   O7        1.0  0.19799799999999998  0.937482  0.036728999999999984  1.0000
  O   O8        1.0  0.4810429999999999  0.234622  0.896216  1.0000
  O   O9        1.0  0.8020019999999999  0.06251799999999998  0.9632709999999999  1.0000
  O   O10       1.0  0.9454079999999998  0.24096099999999998  0.645595  1.0000
  O   O11       1.0  0.518957  0.765378  0.10378399999999999  1.0000
  O   O12       1.0  0.18108299999999997  0.575225  0.9745929999999999  1.0000
  O   O13       1.0  0.5676419999999999  0.7778519999999999  0.508482  1.0000
  O   O14       1.0  0.054591999999999995  0.759039  0.354405  1.0000
data_image1
_chemical_formula_structural       Pr2P2H10C2O14
_chemical_formula_sum              "Pr2 P2 H10 C2 O14"
_cell_length_a       6.761788999999999
_cell_length_b       7.146483751908908
_cell_length_c       7.843598011864962
_cell_angle_alpha    110.54253585495134
_cell_angle_beta     95.79501476046597
_cell_angle_gamma    89.49575901902455

_space_group_name_H-M_alt    "P 1"
_space_group_IT_number       1

loop_
  _space_group_symop_operation_xyz
  'x, y, z'

loop_
  _atom_site_type_symbol
  _atom_site_label
  _atom_site_symmetry_multiplicity
  _atom_site_fract_x
  _atom_site_fract_y
  _atom_site_fract_z
  _atom_site_occupancy
  Pr  Pr1       1.0  0.13320436609561168  0.2037738432240022  0.9392431053916994  1.0000
  Pr  Pr2       1.0  0.8739644566266808  0.7757150139590107  0.06546639660148286  1.0000
  P   P1        1.0  0.646344697640956  0.20994882846997878  0.9770799631673652  1.0000
  P   P2        1.0  0.3331518887600345  0.7358592076177346  0.9826248337041378  1.0000
  H   H1        1.0  0.4553433659812001  0.1726187931346041  0.3676996105284078  1.0000
  H   H2        1.0  0.5373920645001626  0.9603553206498774  0.5419335108500662  1.0000
  H   H3        1.0  0.7498262181229487  0.719834219631226  0.6648121426195263  1.0000
  H   H4        1.0  0.3300886460484844  0.32779517040487705  0.36584456636229956  1.0000
  H   H5        1.0  0.6012973553091226  0.7572588325043086  0.20240102607188065  1.0000
  H   H6        1.0  0.5823288159038464  0.20416319561750168  0.14790075602956337  1.0000
  H   H7        1.0  0.15901923420246564  0.5228420902900447  0.3662880248608468  1.0000
  H   H8        1.0  0.5129698312505062  0.4762051076337164  0.6018892563611862  1.0000
  H   H9        1.0  0.404400999201899  0.7644871386141469  0.8129666521381973  1.0000
  H   H10       1.0  0.41567882089784497  0.7823186458674123  0.41377026979362036  1.0000
  C   C1        1.0  0.06729269905779578  0.9502564660244003  0.5096143589781348  1.0000
  C   C2        1.0  0.9683259647450766  0.14715317097680544  0.5044692677550342  1.0000
  O   O1        1.0  0.784602003347969  0.39145405292329793  0.9954784609263235  1.0000
  O   O2        1.0  0.8440511755196416  0.1242082776740177  0.3550999912784132  1.0000
  O   O3        1.0  0.1312031261226199  0.9365881063834527  0.6593409265670269  1.0000
  O   O4        1.0  0.4768367931307393  0.2724602701648687  0.5680612123138277  1.0000
  O   O5        1.0  0.7244343999240098  0.6787003104966031  0.7636522989485001  1.0000
  O   O6        1.0  0.1933076840062726  0.3821071324415133  0.2999967994418094  1.0000
  O   O7        1.0  0.21157446650165967  0.947751126568978  0.08258834553667911  1.0000
  O   O8        1.0  0.45814640691661906  0.23241005590430394  0.8667126966045856  1.0000
  O   O9        1.0  0.7948707386134025  0.04569281626696485  0.9250853348104406  1.0000
  O   O10       1.0  0.0058510123567565575  0.28995360234986517  0.6491223514724855  1.0000
  O   O11       1.0  0.5212684524835774  0.7199855593090898  0.09493384217959121  1.0000
  O   O12       1.0  0.169875540201999  0.5842110946125527  0.9646956186518716  1.0000
  O   O13       1.0  0.5678016862372228  0.8112806676052143  0.46594828271653016  1.0000
  O   O14       1.0  0.0707377020109598  0.8070493654624971  0.3565978770063167  1.0000
data_image2
_chemical_formula_structural       Pr2P2H10C2O14
_chemical_formula_sum              "Pr2 P2 H10 C2 O14"
_cell_length_a       6.761788999999999
_cell_length_b       7.146483751908908
_cell_length_c       7.843598011864962
_cell_angle_alpha    110.54253585495134
_cell_angle_beta     95.79501476046597
_cell_angle_gamma    89.49575901902455

_space_group_name_H-M_alt    "P 1"
_space_group_IT_number       1

loop_
  _space_group_symop_operation_xyz
  'x, y, z'

loop_
  _atom_site_type_symbol
  _atom_site_label
  _atom_site_symmetry_multiplicity
  _atom_site_fract_x
  _atom_site_fract_y
  _atom_site_fract_z
  _atom_site_occupancy
  Pr  Pr1       1.0  0.22949137983141554  0.7901703750599154  0.004902835642951686  1.0000
  Pr  Pr2       1.0  0.9939446794051037  0.009586114131252543  0.5745504624951536  1.0000
  P   P1        1.0  0.4155900275432032  0.1198471155585139  0.2913283492351866  1.0000
  P   P2        1.0  0.5832169523250741  0.07763712786345423  0.5045885250206084  1.0000
  H   H1        1.0  0.8204355375164596  0.20967072832399936  0.4635093463807607  1.0000
  H   H2        1.0  0.6402361424734409  0.06473545558583282  0.7811270599422642  1.0000
  H   H3        1.0  0.6815401164722061  0.04805876424507005  0.45066422583590793  1.0000
  H   H4        1.0  0.691802549366912  0.5547650594899096  0.7523505005865445  1.0000
  H   H5        1.0  0.9137879842284775  0.8369710211401653  0.02932072286125731  1.0000
  H   H6        1.0  0.7154415909567433  0.04734599983476073  0.8499751291369648  1.0000
  H   H7        1.0  0.49894215446602175  0.005391402688474045  0.45388987942533277  1.0000
  H   H8        1.0  0.12242645763762994  0.44649664297867275  0.6425271664979846  1.0000
  H   H9        1.0  0.769310020801413  0.471775744255865  0.6648988551369257  1.0000
  H   H10       1.0  0.6241246921524635  0.15790064647671898  0.22983133383991117  1.0000
  C   C1        1.0  0.5336872258882295  0.03452949979782716  0.8609501447499497  1.0000
  C   C2        1.0  0.7850008864825213  0.48891806525625725  0.40558613644964225  1.0000
  O   O1        1.0  0.9094096855442331  0.16462545708782272  0.4958393321812764  1.0000
  O   O2        1.0  0.3595309555253152  0.8078277724038685  0.5416482748923102  1.0000
  O   O3        1.0  0.6575876375727141  0.5123392288822117  0.7628840948698254  1.0000
  O   O4        1.0  0.18101989575620792  0.3439505374747682  0.7917535657040204  1.0000
  O   O5        1.0  0.2697355184045591  0.6094662144072913  0.4326025523591852  1.0000
  O   O6        1.0  0.42100519187038365  0.9646789760768968  0.3175261245416836  1.0000
  O   O7        1.0  0.13514406911599508  0.7094010245982645  0.5491225305340777  1.0000
  O   O8        1.0  0.26417912034696656  0.25859768740110667  0.6545485713022572  1.0000
  O   O9        1.0  0.8429459256258269  0.1875389175656892  0.9574164304540318  1.0000
  O   O10       1.0  0.39170576901108234  0.24382657651562312  0.8618641344603475  1.0000
  O   O11       1.0  0.2903023173407746  0.669037209656949  0.647809438421973  1.0000
  O   O12       1.0  0.9498648016584355  0.6062817517154144  0.07179038628279955  1.0000
  O   O13       1.0  0.59771960924121  0.324341335025224  0.25705292416341763  1.0000
  O   O14       1.0  0.5527797530612588  0.8443547614243556  0.3303391552966417  1.0000
data_image3
_chemical_formula_structural       Pr2P2H10C2O14
_chemical_formula_sum              "Pr2 P2 H10 C2 O14"
_cell_length_a       6.761788999999999
_cell_length_b       7.146483751908908
_cell_length_c       7.843598011864962
_cell_angle_alpha    110.54253585495134
_cell_angle_beta     95.79501476046597
_cell_angle_gamma    89.49575901902455

_space_group_name_H-M_alt    "P 1"
_space_group_IT_number       1

loop_
  _space_group_symop_operation_xyz
  'x, y, z'

loop_
  _atom_site_type_symbol
  _atom_site_label
  _atom_site_symmetry_multiplicity
  _atom_site_fract_x
  _atom_site_fract_y
  _atom_site_fract_z
  _atom_site_occupancy
  Pr  Pr1       1.0  0.8905157924837113  0.863054359515445  0.5229330517440758  1.0000
  Pr  Pr2       1.0  0.2400853750477836  0.3016370696418562  0.4575428498592373  1.0000
  P   P1        1.0  0.7062258477271826  0.6113521807374127  0.16519872193748597  1.0000
  P   P2        1.0  0.005082486924948171  0.9937191334101954  0.609046421952371  1.0000
  H   H1        1.0  0.5507653820980067  0.9310175561995493  0.8440898974954507  1.0000
  H   H2        1.0  0.6607352818355139  0.17624240717850626  0.8143223654769827  1.0000
  H   H3        1.0  0.6206390046936576  0.6364504662328727  0.28495063133595977  1.0000
  H   H4        1.0  0.9430291275821219  0.06104112262255512  0.5061829840269638  1.0000
  H   H5        1.0  0.9081626225415675  0.8497158688523996  0.5281717298712465  1.0000
  H   H6        1.0  0.5345763110722146  0.36612906320499405  0.5916560292562281  1.0000
  H   H7        1.0  0.9390356146031991  0.009008760520373471  0.3778465846844483  1.0000
  H   H8        1.0  0.3549551716496353  0.20616494259229512  0.32763042842452705  1.0000
  H   H9        1.0  0.48905219734297134  0.9350553854019381  0.32099335119346506  1.0000
  H   H10       1.0  0.43053586349742545  0.8069391895360241  0.9877843621034117  1.0000
  C   C1        1.0  0.5249840229653273  0.7111108171156957  0.2331059990247013  1.0000
  C   C2        1.0  0.5862120462315943  0.5525087081568927  0.6447373994819827  1.0000
  O   O1        1.0  0.9021478289287188  0.6558664374970249  0.4061011690773739  1.0000
  O   O2        1.0  0.1611753800416409  0.26487830031328485  0.009188095229546889  1.0000
  O   O3        1.0  0.5436721182863948  0.14800155338525656  0.2490211940203153  1.0000
  O   O4        1.0  0.828954188878015  0.6766610088889138  0.5427340107657983  1.0000
  O   O5        1.0  0.7542627217233075  0.6756008761876728  0.18949892811633617  1.0000
  O   O6        1.0  0.08368428401513484  0.6955315443841528  0.6893813615660775  1.0000
  O   O7        1.0  0.6510563763295067  0.4116803894430632  0.5214691263536224  1.0000
  O   O8        1.0  0.016297828170991124  0.20759106935838645  0.7764343578523949  1.0000
  O   O9        1.0  0.20098877853888553  0.6622931545134634  0.6133204298384953  1.0000
  O   O10       1.0  0.4332974859080423  0.4177064373518533  0.6711138336962108  1.0000
  O   O11       1.0  0.13977794771290064  0.32542598998225003  0.17203838548175554  1.0000
  O   O12       1.0  0.9560411313905206  0.9095243563519944  0.04049442397854364  1.0000
  O   O13       1.0  0.5604188435074775  0.06870775281488761  0.519368967733044  1.0000
  O   O14       1.0  0.9625110789920654  0.7007800091677154  0.7196457376396381  1.0000
data_image4
_chemical_formula_structural       Pr2P2H10C2O14
_chemical_formula_sum              "Pr2 P2 H10 C2 O14"
_cell_length_a       6.761788999999999
_cell_length_b       7.146483751908908
_cell_length_c       7.843598011864962
_cell_angle_alpha    110.54253585495134
_cell_angle_beta     95.79501476046597
_cell_angle_gamma    89.49575901902455

_space_group_name_H-M_alt    "P 1"
_space_group_IT_number       1

loop_
  _space_group_symop_operation_xyz
  'x, y, z'

loop_
  _atom_site_type_symbol
  _atom_site_label
  _atom_site_symmetry_multiplicity
  _atom_site_fract_x
  _atom_site_fract_y
  _atom_site_fract_z
  _atom_site_occupancy
  Pr  Pr1       1.0  0.8793060907919426  0.6071868787912535  0.18989262975082966  1.0000
  Pr  Pr2       1.0  0.44159364281222224  0.6457247999496758  0.6843330096453428  1.0000
  P   P1        1.0  0.38092743243760196  0.9919214298424777  0.10762745863758028  1.0000
  P   P2        1.0  0.3856268711388111  0.24479184672236443  0.5433855541050434  1.0000
  H   H1        1.0  0.9549951138906181  0.9269956713542342  0.1303720565047115  1.0000
  H   H2        1.0  0.9856078842421994  0.7303940494311973  0.2244251516120812  1.0000
  H   H3        1.0  0.7924614385992754  0.7134715192660224  0.8869701687945053  1.0000
  H   H4        1.0  0.7356931296235416  0.7170524089888204  0.9417222982738167  1.0000
  H   H5        1.0  0.1320469842175953  0.4110298468149267  0.4025675606171717  1.0000
  H   H6        1.0  0.5952977068373002  0.031398257706314325  0.7848187012132257  1.0000
  H   H7        1.0  0.9979731295206875  0.32919938993291  0.5318743754469324  1.0000
  H   H8        1.0  0.4328349166025873  0.15515255730133504  0.812588314700406  1.0000
  H   H9        1.0  0.2006583596667042  0.2895222668303177  0.8525027489395143  1.0000
  H   H10       1.0  0.23736749312956817  0.6627409171196632  0.22464716783724725  1.0000
  C   C1        1.0  0.2870985355493758  0.22282888152403757  0.0756372698378982  1.0000
  C   C2        1.0  0.13149287487613037  0.2944106550421566  0.3787697729712818  1.0000
  O   O1        1.0  0.3389080199194723  0.17908096416067565  0.5125494170533784  1.0000
  O   O2        1.0  0.3437000035191886  0.6165180919124396  0.9032179253408685  1.0000
  O   O3        1.0  0.42411793124847463  0.5606159791750542  0.5858738024944614  1.0000
  O   O4        1.0  0.561930196634421  0.6504528322184342  0.6482779998914339  1.0000
  O   O5        1.0  0.7965178733720677  0.5153410553757567  0.6458196843159385  1.0000
  O   O6        1.0  0.1559916190817603  0.5823281019924025  0.11529819301449606  1.0000
  O   O7        1.0  0.10176358526223339  0.3194752333820361  0.2224036014667945  1.0000
  O   O8        1.0  0.32331247411639197  0.5520849212225585  0.20109441800923378  1.0000
  O   O9        1.0  0.13154929969459772  0.3661531468387693  0.6104932579910383  1.0000
  O   O10       1.0  0.5550304255120864  0.8144459394061414  0.4871679310226682  1.0000
  O   O11       1.0  0.9935854873856442  0.15097367060661782  0.23315672339958837  1.0000
  O   O12       1.0  0.9907745575183071  0.004442825568730768  0.8128496092631394  1.0000
  O   O13       1.0  0.7910587611977462  0.04989408201254264  0.5020087286966373  1.0000
  O   O14       1.0  0.36939578398596495  0.8387215944094351  0.9100700152339414  1.0000
data_image5
_chemical_formula_structural       Pr2P2H10C2O14
_chemical_formula_sum              "Pr2 P2 H10 C2 O14"
_cell_length_a       6.761788999999999
_cell_length_b       7.146483751908908
_cell_length_c       7.843598011864962
_cell_angle_alpha    110.54253585495134
_cell_angle_beta     95.79501476046597
_cell_angle_gamma    89.49575901902455

_space_group_name_H-M_alt    "P 1"
_space_group_IT_number       1

loop_
  _space_group_symop_operation_xyz
  'x, y, z'

loop_
  _atom_site_type_symbol
  _atom_site_label
  _atom_site_symmetry_multiplicity
  _atom_site_fract_x
  _atom_site_fract_y
  _atom_site_fract_z
  _atom_site_occupancy
  Pr  Pr1       1.0  0.17169598803593544  0.26469641981384484  0.8848006436091964  1.0000
  Pr  Pr2       1.0  0.11968609038740396  0.23932584561407566  0.4423670433461666  1.0000
  P   P1        1.0  0.3445809966578963  0.9703559019835666  0.7802140229614452  1.0000
  P   P2        1.0  0.2714412435889244  0.20664266496896744  0.853934034705162  1.0000
  H   H1        1.0  0.7777902334928513  0.699682888109237  0.33115092013031244  1.0000
  H   H2        1.0  0.03801268254755996  0.9114489197963849  0.7997577054011344  1.0000
  H   H3        1.0  0.8100918683921918  0.6656510079046711  0.9299548011040315  1.0000
  H   H4        1.0  0.3689871905371547  0.703350338502787  0.652695455821231  1.0000
  H   H5        1.0  0.47176200803369284  0.7398080299608409  0.5119473491504323  1.0000
  H   H6        1.0  0.05823611671803519  0.9918280644342303  0.4119356288574636  1.0000
  H   H7        1.0  0.4087064802297391  0.8717215400538407  0.6356924350839108  1.0000
  H   H8        1.0  0.8165005756309256  0.5803449071245268  0.5432363532017916  1.0000
  H   H9        1.0  0.5501403288653819  0.08077843839964771  0.15504734012210974  1.0000
  H   H10       1.0  0.4369829075294547  0.5806638625217602  0.9132396935019642  1.0000
  C   C1        1.0  0.013810401142109185  0.061319689339143224  0.16228448832407594  1.0000
  C   C2        1.0  0.9318254089448601  0.7047347745392472  0.9098357235197909  1.0000
  O   O1        1.0  0.7998617700650357  0.870049710792955  0.7811633699093363  1.0000
  O   O2        1.0  0.20619626608095132  0.5161971062552766  0.634168923854304  1.0000
  O   O3        1.0  0.8088717779246508  0.1415023645677138  0.5609148822550196  1.0000
  O   O4        1.0  0.19682823084349366  0.12091249064542353  0.7681014568952378  1.0000
  O   O5        1.0  0.7521321130043361  0.11450924014206976  0.2963719899998978  1.0000
  O   O6        1.0  0.7361275427319924  0.8830677451619948  0.4509169496905088  1.0000
  O   O7        1.0  0.9197533138431027  0.09681347510922933  0.34240411809878424  1.0000
  O   O8        1.0  0.6273578271502629  0.5051649847446242  0.4262073577247065  1.0000
  O   O9        1.0  0.5667880135588348  0.3025071113370359  0.920001185091678  1.0000
  O   O10       1.0  0.8636041515128454  0.9348161289526615  0.6381464218848123  1.0000
  O   O11       1.0  0.9057123079492158  0.6843205620680237  0.24660405465692747  1.0000
  O   O12       1.0  0.25477693002540036  0.0923062885995023  0.9175133405042288  1.0000
  O   O13       1.0  0.6205851031772909  0.739521289966433  0.6786704709211335  1.0000
  O   O14       1.0  0.44681011990178376  0.5014040984970052  0.9420939488336444  1.0000
data_image6
_chemical_formula_structural       Pr2P2H10C2O14
_chemical_formula_sum              "Pr2 P2 H10 C2 O14"
_cell_length_a       6.761788999999999
_cell_length_b       7.146483751908908
_cell_length_c       7.843598011864962
_cell_angle_alpha    110.54253585495134
_cell_angle_beta     95.79501476046597
_cell_angle_gamma    89.49575901902455

_space_group_name_H-M_alt    "P 1"
_space_group_IT_number       1

loop_
  _space_group_symop_operation_xyz
  'x, y, z'

loop_
  _atom_site_type_symbol
  _atom_site_label
  _atom_site_symmetry_multiplicity
  _atom_site_fract_x
  _atom_site_fract_y
  _atom_site_fract_z
  _atom_site_occupancy
  Pr  Pr1       1.0  0.5278554729084135  0.6007679896029003  0.9361369542930333  1.0000
  Pr  Pr2       1.0  0.18453146144747734  0.9203170407563448  0.7551823845133185  1.0000
  P   P1        1.0  0.7146113092530868  0.6526008760556579  0.6922885494423099  1.0000
  P   P2        1.0  0.29457997530698776  0.22821930050849915  0.9999644458293915  1.0000
  H   H1        1.0  0.23023421503603458  0.6380233028903604  0.29520677612163126  1.0000
  H   H2        1.0  0.8068761372123845  0.919092390104197  0.8628033242212041  1.0000
  H   H3        1.0  0.46963499358389527  0.2753081362461671  0.6283817375078797  1.0000
  H   H4        1.0  0.3600651390152052  0.542141628684476  0.6371668806532398  1.0000
  H   H5        1.0  0.6251454325392842  0.617417010711506  0.11181880053845816  1.0000
  H   H6        1.0  0.6784499040804803  0.1315362590830773  0.6239275489933789  1.0000
  H   H7        1.0  0.1457264248165302  0.6965495766489767  0.5601402709726244  1.0000
  H   H8        1.0  0.8168379451381043  0.12509011989459395  0.6841376281809062  1.0000
  H   H9        1.0  0.4990576767886523  0.46226215818023775  0.9258495792091708  1.0000
  H   H10       1.0  0.6012438351754099  0.048228092840872705  0.650642660446465  1.0000
  C   C1        1.0  0.24959486426087096  0.3636480237109936  0.3504533903906122  1.0000
  C   C2        1.0  0.06542139453813434  0.6871064256411046  0.5601687004091218  1.0000
  O   O1        1.0  0.24566200710978592  0.6686063866363838  0.9503631601401139  1.0000
  O   O2        1.0  0.8526171998528298  0.514444057145738  0.6032575740318862  1.0000
  O   O3        1.0  0.6253717592007888  0.14365691537386738  0.11183104105293751  1.0000
  O   O4        1.0  0.8361305963026098  0.6487312768877018  0.36524184001609683  1.0000
  O   O5        1.0  0.05558407033095136  0.5718937232741155  0.5435218234779313  1.0000
  O   O6        1.0  0.6107955332627171  0.31500069145931775  0.3579647212563941  1.0000
  O   O7        1.0  0.520029902781971  0.9546777160794591  0.8055091763526434  1.0000
  O   O8        1.0  0.883062906053965  0.4892383061305736  0.49015168043212043  1.0000
  O   O9        1.0  0.050586686469614506  0.4299666346050799  0.6272199469967745  1.0000
  O   O10       1.0  0.9779562073745183  0.7437002045844565  0.5146571866134764  1.0000
  O   O11       1.0  0.43099621415422007  0.7663710672059096  0.40281047688040417  1.0000
  O   O12       1.0  0.19880272482623695  0.8576509030390298  0.5808589338703314  1.0000
  O   O13       1.0  0.4319185020922305  0.674420509229094  0.5681330562811127  1.0000
  O   O14       1.0  0.9555773069150746  0.7506741963734385  0.8301315070129931  1.0000
data_image7
_chemical_formula_structural       Pr2P2H10C2O14
_chemical_formula_sum              "Pr2 P2 H10 C2 O14"
_cell_length_a       6.761788999999999
_cell_length_b       7.146483751908908
_cell_length_c       7.843598011864962
_cell_angle_alpha    110.54253585495134
_cell_angle_beta     95.79501476046597
_cell_angle_gamma    89.49575901902455

_space_group_name_H-M_alt    "P 1"
_space_group_IT_number       1

loop_
  _space_group_symop_operation_xyz
  'x, y, z'

loop_
  _atom_site_type_symbol
  _atom_site_label
  _atom_site_symmetry_multiplicity
  _atom_site_fract_x
  _atom_site_fract_y
  _atom_site_fract_z
  _atom_site_occupancy
  Pr  Pr1       1.0  0.5105677680767258  0.12810954415908782  0.5962471046477731  1.0000
  Pr  Pr2       1.0  0.4229937866330147  0.6844517281278968  0.9651609240099788  1.0000
  P   P1        1.0  0.8508645187685033  0.46876352292019874  0.771497224632185  1.0000
  P   P2        1.0  0.9877907000482082  0.1379014104604721  0.6633163951337337  1.0000
  H   H1        1.0  0.4516689535230398  0.2603976670652628  0.10694823297671974  1.0000
  H   H2        1.0  0.38801835948834196  0.1406660745269619  0.32398139265933423  1.0000
  H   H3        1.0  0.6155735532520339  0.7446335447020829  0.9427175035234541  1.0000
  H   H4        1.0  0.045584105246234685  0.2785179707570933  0.32971771247684956  1.0000
  H   H5        1.0  0.9842613183427602  0.9397231293842196  0.2555425826649298  1.0000
  H   H6        1.0  0.17517775751184672  0.7231177943758667  0.1630686845164746  1.0000
  H   H7        1.0  0.4207211957545951  0.8356946871790569  0.16083772387355566  1.0000
  H   H8        1.0  0.5561333613586612  0.28390778019092977  0.6943434590939432  1.0000
  H   H9        1.0  0.9641180797334528  0.9655563686610549  0.5954285300213087  1.0000
  H   H10       1.0  0.6729413410648704  0.35164614964742213  0.7969454017002136  1.0000
  C   C1        1.0  0.7685583932907321  0.9474175923023722  0.09601405542343855  1.0000
  C   C2        1.0  0.14746234007179737  0.721117812441662  0.16737144991930109  1.0000
  O   O1        1.0  0.6092562607955188  0.61898391811701  0.9641090051591164  1.0000
  O   O2        1.0  0.7140078929951414  0.4537729520670837  0.8098537464175024  1.0000
  O   O3        1.0  0.5708980462004547  0.12648831887054257  0.8340302710130345  1.0000
  O   O4        1.0  0.4156933981921611  0.8312015427072765  0.8183337337104604  1.0000
  O   O5        1.0  0.08423764069448225  0.6243816848145798  0.6146073626587167  1.0000
  O   O6        1.0  0.27490978495188756  0.484882807984377  0.1933022179400723  1.0000
  O   O7        1.0  0.7335886890505208  0.19068888601532308  0.06896251295984257  1.0000
  O   O8        1.0  0.17317405504581984  0.678772000290337  0.38591665823150834  1.0000
  O   O9        1.0  0.6876187138259411  0.6868502459255978  0.35353764035971835  1.0000
  O   O10       1.0  0.6500572405639105  0.3292966094450094  0.5344962830495206  1.0000
  O   O11       1.0  0.7077639609142352  0.34636832124670036  0.8359105164417997  1.0000
  O   O12       1.0  0.4965136224964226  0.03587917020195164  0.36429422836226877  1.0000
  O   O13       1.0  0.46020506515560555  0.39513473816623446  0.3929761600056736  1.0000
  O   O14       1.0  0.6976733866613358  0.21202628425089642  0.41163524473086  1.0000
data_image8
_chemical_formula_structural       Pr2P2H10C2O14
_chemical_formula_sum              "Pr2 P2 H10 C2 O14"
_cell_length_a       6.761788999999999
_cell_length_b       7.146483751908908
_cell_length_c       7.843598011864962
_cell_angle_alpha    110.54253585495134
_cell_angle_beta     95.79501476046597
_cell_angle_gamma    89.49575901902455

_space_group_name_H-M_alt    "P 1"
_space_group_IT_number       1

loop_
  _space_group_symop_operation_xyz
  'x, y, z'

loop_
  _atom_site_type_symbol
  _atom_site_label
  _atom_site_symmetry_multiplicity
  _atom_site_fract_x
  _atom_site_fract_y
  _atom_site_fract_z
  _atom_site_occupancy
  Pr  Pr1       1.0  0.15980996816506376  0.11272448720774264  0.231215074461943  1.0000
  Pr  Pr2       1.0  0.9641424315050244  0.333753677085042  0.93597905151546  1.0000
  P   P1        1.0  0.4533178962628881  0.7832934412872419  0.8678244004840963  1.0000
  P   P2        1.0  0.6335612908005714  0.48085151612758636  0.9841606840491295  1.0000
  H   H1        1.0  0.8302521533332765  0.7058809790760279  0.9556676079519093  1.0000
  H   H2        1.0  0.1990441073430702  0.8696462900843471  0.5540042343709501  1.0000
  H   H3        1.0  0.8290902738517616  0.17751280183438212  0.5114518150221556  1.0000
  H   H4        1.0  0.17228782078018412  0.7700516753830016  0.1820868921931833  1.0000
  H   H5        1.0  0.45940398785751313  0.5075028387364  0.5783884708398546  1.0000
  H   H6        1.0  0.689443904615473  0.2695120801217854  0.790015417849645  1.0000
  H   H7        1.0  0.4619759524939582  0.6277940788422711  0.010902571608312428  1.0000
  H   H8        1.0  0.7352071300847456  0.17485678987577558  0.034482453018426895  1.0000
  H   H9        1.0  0.23005926141922828  0.30686708099528914  0.35832208901229023  1.0000
  H   H10       1.0  0.9289235335309058  0.0012974889250472188  0.31222945288755  1.0000
  C   C1        1.0  0.4252093636896461  0.7541290064109489  0.6227196101681329  1.0000
  C   C2        1.0  0.5722902914276347  0.9947166577912867  0.026679000759031624  1.0000
  O   O1        1.0  0.9467597046168521  0.1142456458765082  0.24906990645831684  1.0000
  O   O2        1.0  0.38531813854933716  0.40634601419151295  0.9326135824230732  1.0000
  O   O3        1.0  0.5203766013801214  0.537024799734354  0.554837169489474  1.0000
  O   O4        1.0  0.0741108013316989  0.6474044710048474  0.3843979154480621  1.0000
  O   O5        1.0  0.12071063315670472  0.14017914788564667  0.381099778926  1.0000
  O   O6        1.0  0.9028057548930519  0.958452088498575  0.7577145105387899  1.0000
  O   O7        1.0  0.9338040386210196  0.7105397747945972  0.3004408557462739  1.0000
  O   O8        1.0  0.8290752756292932  0.49381134197028587  0.9308248837187421  1.0000
  O   O9        1.0  0.553939004894346  0.5166781740263104  0.7554805791587569  1.0000
  O   O10       1.0  0.974650043353904  0.35363467387651326  0.822470369437724  1.0000
  O   O11       1.0  0.33367089366947766  0.4269684956234414  0.16524040802323725  1.0000
  O   O12       1.0  0.023278946820937563  0.3106253838113844  0.9487905815112754  1.0000
  O   O13       1.0  0.0485943784860865  0.5075190052784819  0.2185135552099382  1.0000
  O   O14       1.0  0.8774906564503908  0.4670896598545369  0.6999174184165895  1.0000
data_image9
_chemical_formula_structural       Pr2P2H10C2O14
_chemical_formula_sum              "Pr2 P2 H10 C2 O14"
_cell_length_a       6.761788999999999
_cell_length_b       7.146483751908908
_cell_length_c       7.843598011864962
_cell_angle_alpha    110.54253585495134
_cell_angle_beta     95.79501476046597
_cell_angle_gamma    89.49575901902455

_space_group_name_H-M_alt    "P 1"
_space_group_IT_number       1

loop_
  _space_group_symop_operation_xyz
  'x, y, z'

loop_
  _atom_site_type_symbol
  _atom_site_label
  _atom_site_symmetry_multiplicity
  _atom_site_fract_x
  _atom_site_fract_y
  _atom_site_fract_z
  _atom_site_occupancy
  Pr  Pr1       1.0  0.30206471143173985  0.7074311141514045  0.10547979227703763  1.0000
  Pr  Pr2       1.0  0.5110239740461111  0.08080804627388716  0.89875060133636  1.0000
  P   P1        1.0  0.4581809671365136  0.7480717526050285  0.8196134037571028  1.0000
  P   P2        1.0  0.2909589931368828  0.862177662551403  0.7824484035372734  1.0000
  H   H1        1.0  0.3856556680984795  0.31907494459301233  0.8216782093513757  1.0000
  H   H2        1.0  0.7686295228777453  0.4533083582064137  0.8297615090268664  1.0000
  H   H3        1.0  0.39456132662598975  0.11111231951508671  0.28865024773404  1.0000
  H   H4        1.0  0.013393911358434707  0.5045175838749856  0.14068071101792157  1.0000
  H   H5        1.0  0.08877544209826738  0.47814764583017677  0.49010673128577764  1.0000
  H   H6        1.0  0.6379307337920181  0.6513388212770224  0.5438284615520388  1.0000
  H   H7        1.0  0.3341751812840812  0.2974043109861668  0.11075055622495711  1.0000
  H   H8        1.0  0.19576977437827736  0.0034163701348006725  0.5779680688865483  1.0000
  H   H9        1.0  0.069431722688023  0.7000322110397974  0.5298947887658869  1.0000
  H   H10       1.0  0.718299672123976  0.29612825030926615  0.35728049790486693  1.0000
  C   C1        1.0  0.2839051892515272  0.8525171889923513  0.12760544195771217  1.0000
  C   C2        1.0  0.010190912755206227  0.18039927817881107  0.053807485950528644  1.0000
  O   O1        1.0  0.4073044501856202  0.6282069139269879  0.23281219272030285  1.0000
  O   O2        1.0  0.8410965734510683  0.06833536513295257  0.4021703757462092  1.0000
  O   O3        1.0  0.25031654219856136  0.3737047742179129  0.12371313384210225  1.0000
  O   O4        1.0  0.015010343631729484  0.6328369047259912  0.553285222966224  1.0000
  O   O5        1.0  0.5130571336048888  0.19401318626478314  0.5961738732876256  1.0000
  O   O6        1.0  0.9807407409025473  0.09099938052168  0.4847572976564152  1.0000
  O   O7        1.0  0.8632517935475335  0.7429636680572003  0.6253181565843988  1.0000
  O   O8        1.0  0.14216190914157778  0.7933712613084936  0.23411166747973766  1.0000
  O   O9        1.0  0.6293215919286013  0.775044102454558  0.893961773312185  1.0000
  O   O10       1.0  0.32683267688116757  0.266649567616696  0.2523913910390547  1.0000
  O   O11       1.0  0.2501011836793623  0.7013752539351117  0.5735015731770545  1.0000
  O   O12       1.0  0.6573199182166718  0.9055405594262993  0.7354376480798237  1.0000
  O   O13       1.0  0.04305883355846163  0.5865359048329992  0.5545931551023386  1.0000
  O   O14       1.0  0.13955833693034947  0.5553388075495604  0.10087376041337848  1.0000
data_image10
_chemical_formula_structural       Pr2P2H10C2O14
_chemical_formula_sum              "Pr2 P2 H10 C2 O14"
_cell_length_a       6.761788999999999
_cell_length_b       7.146483751908908
_cell_length_c       7.843598011864962
_cell_angle_alpha    110.54253585495134
_cell_angle_beta     95.79501476046597
_cell_angle_gamma    89.49575901902455

_space_group_name_H-M_alt    "P 1"
_space_group_IT_number       1

loop_
  _space_group_symop_operation_xyz
  'x, y, z'

loop_
  _atom_site_type_symbol
  _atom_site_label
  _atom_site_symmetry_multiplicity
  _atom_site_fract_x
  _atom_site_fract_y
  _atom_site_fract_z
  _atom_site_occupancy
  Pr  Pr1       1.0  0.3138477022439474  0.5181277597002918  0.3440681592473993  1.0000
  Pr  Pr2       1.0  0.6089821932837367  0.10402565076947212  0.6984886024147272  1.0000
  P   P1        1.0  0.9679431598633528  0.25303639005869627  0.8860626649111509  1.0000
  P   P2        1.0  0.15775350108742714  0.871642991900444  0.06788359954953194  1.0000
  H   H1        1.0  0.07428676635026932  0.6228252807632089  0.2616200866177678  1.0000
  H   H2        1.0  0.8077951425220817  0.4090102246263996  0.0790973903494887  1.0000
  H   H3        1.0  0.6330564671370666  0.20514904602896422  0.9552295522298664  1.0000
  H   H4        1.0  0.13539987860713154  0.6819335994077846  0.010656311875209212  1.0000
  H   H5        1.0  0.8421019430970773  0.12088934506755322  0.6372650933008117  1.0000
  H   H6        1.0  0.335927817504853  0.4223410824779421  0.9437012737616897  1.0000
  H   H7        1.0  0.9234533458802616  0.4034115532413125  0.25542132556438446  1.0000
  H   H8        1.0  0.9507525408407673  0.4436553579289466  0.04006876237690449  1.0000
  H   H9        1.0  0.2755737444385886  0.14501732029020786  0.6649697301909328  1.0000
  H   H10       1.0  0.19582324218936265  0.8489317578496411  0.07250603940337896  1.0000
  C   C1        1.0  0.8514631596626714  0.8981630909256637  0.9857587552396581  1.0000
  C   C2        1.0  0.9833781903143972  0.9492812836542726  0.713772658171365  1.0000
  O   O1        1.0  0.9727942880417686  0.8824871127144434  0.4097823701231391  1.0000
  O   O2        1.0  0.4115534009761177  0.5600555493147112  0.7798234092624625  1.0000
  O   O3        1.0  0.9060302754114673  0.9766207575667067  0.5391444102278911  1.0000
  O   O4        1.0  0.08634632494067773  0.8214139937772416  0.8481220257235691  1.0000
  O   O5        1.0  0.49947725620222627  0.14845119987148792  0.5915397793287411  1.0000
  O   O6        1.0  0.20122363169502933  0.745227992432774  0.15911136229260592  1.0000
  O   O7        1.0  0.1692273560911417  0.6733308560724254  0.6831016533251386  1.0000
  O   O8        1.0  0.19694420135056134  0.5519670201174449  0.4255803665895428  1.0000
  O   O9        1.0  0.24161925166845322  0.25502287468407303  0.14024899015203118  1.0000
  O   O10       1.0  0.8239597438659985  0.0646561984467553  0.017197295055666473  1.0000
  O   O11       1.0  0.6907333280396415  0.5701531469676411  0.18844993390666787  1.0000
  O   O12       1.0  0.6027383225009544  0.6107707059636596  0.592700085209799  1.0000
  O   O13       1.0  0.2963164346292615  0.44515941967256367  0.7372432935517281  1.0000
  O   O14       1.0  0.22755420417524874  0.24876336607849225  0.6596473485697061  1.0000
data_image11
_chemical_formula_structural       Pr2P2H10C2O14
_chemical_formula_sum              "Pr2 P2 H10 C2 O14"
_cell_length_a       6.761788999999999
_cell_length_b       7.146483751908908
_cell_length_c       7.843598011864962
_cell_angle_alpha    110.54253585495134
_cell_angle_beta     95.79501476046597
_cell_angle_gamma    89.49575901902455

_space_group_name_H-M_alt    "P 1"
_space_group_IT_number       1

loop_
  _space_group_symop_operation_xyz
  'x, y, z'

loop_
  _atom_site_type_symbol
  _atom_site_label
  _atom_site_symmetry_multiplicity
  _atom_site_fract_x
  _atom_site_fract_y
  _atom_site_fract_z
  _atom_site_occupancy
  Pr  Pr1       1.0  0.44103854065178894  0.3594835987460101  0.7337664276274154  1.0000
  Pr  Pr2       1.0  0.0744119007140398  0.8897779881954193  0.5239441655576229  1.0000
  P   P1        1.0  0.9630825677886605  0.8872631918638945  0.5664731003344059  1.0000
  P   P2        1.0  0.9715095795691013  0.4204508513212204  0.9241095222532749  1.0000
  H   H1        1.0  0.6931151472963393  0.2998607410117984  0.1345963221974671  1.0000
  H   H2        1.0  0.09347408975008875  0.0298287991899997  0.681633201893419  1.0000
  H   H3        1.0  0.4703817531117238  0.41364290041383356  0.753849673550576  1.0000
  H   H4        1.0  0.4752324658911675  0.17388965655118227  0.3565445370040834  1.0000
  H   H5        1.0  0.9502626780886203  0.2770075179869309  0.221236037730705  1.0000
  H   H6        1.0  0.2971309816930443  0.7134898585500196  0.2871506977826357  1.0000
  H   H7        1.0  0.11132496147183701  0.9074557875283062  0.7899007773958147  1.0000
  H   H8        1.0  0.5692736178752966  0.600366028258577  0.622598476242274  1.0000
  H   H9        1.0  0.24149194173514843  0.9750824589282274  0.19398062769323587  1.0000
  H   H10       1.0  0.4962994265370071  0.5631730704335496  0.08887124224565923  1.0000
  C   C1        1.0  0.7826442292425781  0.8228982270229608  0.7469878778792918  1.0000
  C   C2        1.0  0.7085388652049005  0.9783867918886244  0.3573501174469129  1.0000
  O   O1        1.0  0.5829861428646836  0.08703537477413192  0.3288433041598182  1.0000
  O   O2        1.0  0.3923430145950988  0.5392891070659971  0.9016685483802576  1.0000
  O   O3        1.0  0.5722262921917718  0.8955221594078466  0.07529860670911148  1.0000
  O   O4        1.0  0.6026757799554616  0.822612272168044  0.43460020411293954  1.0000
  O   O5        1.0  0.6873948775610188  0.9705700755584985  0.768481710110791  1.0000
  O   O6        1.0  0.7201896975166164  0.3354642499325564  0.8013576297962572  1.0000
  O   O7        1.0  0.517876911064377  0.4349475104245357  0.012147564833867364  1.0000
  O   O8        1.0  0.5605355350271566  0.23199862959154416  0.5564650152882678  1.0000
  O   O9        1.0  0.727985477540642  0.8180483208270743  0.5924513855134137  1.0000
  O   O10       1.0  0.08845366397872567  0.11968807461380493  0.3046792771019682  1.0000
  O   O11       1.0  0.8661797528402531  0.7509050642984221  0.03402615665982012  1.0000
  O   O12       1.0  0.27676935301860794  0.3159602354062372  0.17203217634232715  1.0000
  O   O13       1.0  0.7054860116913915  0.8920575230731629  0.22371214255690575  1.0000
  O   O14       1.0  0.5533072813414037  0.35996474575949833  0.057283195899799466  1.0000
data_image12
_chemical_formula_structural       Pr2P2H10C2O14
_chemical_formula_sum              "Pr2 P2 H10 C2 O14"
_cell_length_a       6.761788999999999
_cell_length_b       7.146483751908908
_cell_length_c       7.843598011864962
_cell_angle_alpha    110.54253585495134
_cell_angle_beta     95.79501476046597
_cell_angle_gamma    89.49575901902455

_space_group_name_H-M_alt    "P 1"
_space_group_IT_number       1

loop_
  _space_group_symop_operation_xyz
  'x, y, z'

loop_
  _atom_site_type_symbol
  _atom_site_label
  _atom_site_symmetry_multiplicity
  _atom_site_fract_x
  _atom_site_fract_y
  _atom_site_fract_z
  _atom_site_occupancy
  Pr  Pr1       1.0  0.7774908422143199  0.950084568146849  0.26551071081485134  1.0000
  Pr  Pr2       1.0  0.7024736842140555  0.20506586134433746  0.6098550260066986  1.0000
  P   P1        1.0  0.23820387572050095  0.7436040956526995  0.5875720530748367  1.0000
  P   P2        1.0  0.12650857865810394  0.7529435679316521  0.4220983423292637  1.0000
  H   H1        1.0  0.6275553465820849  0.805165552534163  0.42243208969011903  1.0000
  H   H2        1.0  0.40438819117844105  0.6919805551879108  0.40443145390599966  1.0000
  H   H3        1.0  0.6734701641835272  0.7311055536847562  0.08290119236335158  1.0000
  H   H4        1.0  0.6697202953509986  0.18004490557359532  0.6129282317124307  1.0000
  H   H5        1.0  0.6881778916576877  0.31612547882832587  0.6992704626172781  1.0000
  H   H6        1.0  0.8943027651403099  0.013770003570243716  0.29439976857975125  1.0000
  H   H7        1.0  0.8394556424464099  0.46743360674008727  0.4070652243681252  1.0000
  H   H8        1.0  0.9066544246161357  0.8065240185242146  0.6519162142649293  1.0000
  H   H9        1.0  0.44406221713870764  0.2746015414595604  0.7799299824982882  1.0000
  H   H10       1.0  0.34703658265061677  0.9122930899029598  0.47602092777378857  1.0000
  C   C1        1.0  0.038276720559224486  0.6597069080453366  0.41367788542993367  1.0000
  C   C2        1.0  0.4021488334983587  0.3833352103829384  0.6197761736366374  1.0000
  O   O1        1.0  0.8166503613174427  0.0010556128690950572  0.7998127243772615  1.0000
  O   O2        1.0  0.3598230564384721  0.37319117347942665  0.3222198144940194  1.0000
  O   O3        1.0  0.3780058348493185  0.029507427039789036  0.03159945225343108  1.0000
  O   O4        1.0  0.3415421271347441  0.3313703882158734  0.389609991456382  1.0000
  O   O5        1.0  0.6117606300176703  0.2567646960960701  0.17169694672338665  1.0000
  O   O6        1.0  0.4696471813804237  0.8283160975261126  0.8989064093329944  1.0000
  O   O7        1.0  0.6717687579803169  0.4896600525789836  0.3936334292811807  1.0000
  O   O8        1.0  0.7190463960141642  0.4088544900587294  0.3075838064396521  1.0000
  O   O9        1.0  0.7500211077276617  0.08192061434965581  0.24948614154709503  1.0000
  O   O10       1.0  0.39615825153305195  0.0316318331315415  0.23730995416917722  1.0000
  O   O11       1.0  0.9627670713962289  0.7512949926021975  0.5127511264872737  1.0000
  O   O12       1.0  0.6602165733202128  0.00928297210339224  0.0014032219478394836  1.0000
  O   O13       1.0  0.25186278705950826  0.705891136196442  0.3425667375558987  1.0000
  O   O14       1.0  0.2011626570019871  0.1823232173337601  0.33893080265261233  1.0000
data_image13
_chemical_formula_structural       Pr2P2H10C2O14
_chemical_formula_sum              "Pr2 P2 H10 C2 O14"
_cell_length_a       6.761788999999999
_cell_length_b       7.146483751908908
_cell_length_c       7.843598011864962
_cell_angle_alpha    110.54253585495134
_cell_angle_beta     95.79501476046597
_cell_angle_gamma    89.49575901902455

_space_group_name_H-M_alt    "P 1"
_space_group_IT_number       1

loop_
  _space_group_symop_operation_xyz
  'x, y, z'

loop_
  _atom_site_type_symbol
  _atom_site_label
  _atom_site_symmetry_multiplicity
  _atom_site_fract_x
  _atom_site_fract_y
  _atom_site_fract_z
  _atom_site_occupancy
  Pr  Pr1       1.0  0.36846790798881557  0.6174695846275426  0.13797808851813897  1.0000
  Pr  Pr2       1.0  0.7255430612713099  0.5419040136039257  0.1786373145878315  1.0000
  P   P1        1.0  0.3432186357676983  0.9982535354793072  0.7454566676169634  1.0000
  P   P2        1.0  0.041217509657144547  0.03924184292554855  0.47179998084902763  1.0000
  H   H1        1.0  0.7705015745013952  0.6552734198048711  0.33237334340810776  1.0000
  H   H2        1.0  0.9500164147466421  0.19297579443082213  0.3580753542482853  1.0000
  H   H3        1.0  0.8062333692796528  0.37395603489130735  0.8464874690398574  1.0000
  H   H4        1.0  0.48810115549713373  0.5014946321025491  0.2526801396161318  1.0000
  H   H5        1.0  0.8206033285241574  0.770143870729953  0.23629166453611106  1.0000
  H   H6        1.0  0.05116572277620435  0.5003632699372247  0.51986781693995  1.0000
  H   H7        1.0  0.7613081900635734  0.4316009674221277  0.2958411378785968  1.0000
  H   H8        1.0  0.47962453350191936  0.24081094563007355  0.03713087853975594  1.0000
  H   H9        1.0  0.3962760390713811  0.5019342564046383  0.7505670376121998  1.0000
  H   H10       1.0  0.39068680233322084  0.06080750038381666  0.15820808871649206  1.0000
  C   C1        1.0  0.00643559021409601  0.03331059915944934  0.03881320729851723  1.0000
  C   C2        1.0  0.4761594334850088  0.37033424666151404  0.6370821406308096  1.0000
  O   O1        1.0  0.8640051948896144  0.19765954237664118  0.41531035616935696  1.0000
  O   O2        1.0  0.1608996441354975  0.8513634309347253  0.5607318308902904  1.0000
  O   O3        1.0  0.04573177854763344  0.16774662715033628  0.46224223828176036  1.0000
  O   O4        1.0  0.16765471117105335  0.5354979215189815  0.23908483562991023  1.0000
  O   O5        1.0  0.6682674033945659  0.7562870337860659  0.8700143442256376  1.0000
  O   O6        1.0  0.7373094317299547  0.19716331164818257  0.539389556957758  1.0000
  O   O7        1.0  0.7593859412299935  0.1906163723251666  0.8507532973744674  1.0000
  O   O8        1.0  0.24793182990106288  0.006974279705900699  0.21450801003084052  1.0000
  O   O9        1.0  0.9781448836438358  0.8502800945425406  0.352698904753197  1.0000
  O   O10       1.0  0.03671988655696623  0.4149918460389017  0.8117917717772798  1.0000
  O   O11       1.0  0.8247686749673449  0.7532659455027897  0.27421188697917387  1.0000
  O   O12       1.0  0.33603716308425646  0.7820508815784706  0.13852451529237442  1.0000
  O   O13       1.0  0.9720474709756672  0.7872629736084491  0.570188453886658  1.0000
  O   O14       1.0  0.3962637074291706  0.8208749136538245  0.0929119661450386  1.0000
data_image14
_chemical_formula_structural       Pr2P2H10C2O14
_chemical_formula_sum              "Pr2 P2 H10 C2 O14"
_cell_length_a       6.761788999999999
_cell_length_b       7.146483751908908
_cell_length_c       7.843598011864962
_cell_angle_alpha    110.54253585495134
_cell_angle_beta     95.79501476046597
_cell_angle_gamma    89.49575901902455

_space_group_name_H-M_alt    "P 1"
_space_group_IT_number       1

loop_
  _space_group_symop_operation_xyz
  'x, y, z'

loop_
  _atom_site_type_symbol
  _atom_site_label
  _atom_site_symmetry_multiplicity
  _atom_site_fract_x
  _atom_site_fract_y
  _atom_site_fract_z
  _atom_site_occupancy
  Pr  Pr1       1.0  0.1717538793454878  0.36746634540031664  0.9431646296434337  1.0000
  Pr  Pr2       1.0  0.06256882846355438  0.3320091236382723  0.2847409974783659  1.0000
  P   P1        1.0  0.5515190605074167  0.3543733488768339  0.7981713674962521  1.0000
  P   P2        1.0  0.4753076881170273  0.7030993029475212  0.48184555396437645  1.0000
  H   H1        1.0  0.3137135081924498  0.7862348658964038  0.6291150287725031  1.0000
  H   H2        1.0  0.7142186523415148  0.8623762610368431  0.00888947956264019  1.0000
  H   H3        1.0  0.7983271549455822  0.7820780519396067  0.22289129765704274  1.0000
  H   H4        1.0  0.7500497624278069  0.21144709549844265  0.5195465907454491  1.0000
  H   H5        1.0  0.052506704116240144  0.8238266101107001  0.4283354220096953  1.0000
  H   H6        1.0  0.028987710131332278  0.24243039160501212  0.17771205492317677  1.0000
  H   H7        1.0  0.1770081234863028  0.9767880439758301  0.8566034776158631  1.0000
  H   H8        1.0  0.25756066385656595  0.22223790758289397  0.7079320047050714  1.0000
  H   H9        1.0  0.22552811447530985  0.6412461288273335  0.22223039902746677  1.0000
  H   H10       1.0  0.08924735407344997  0.8083505923859775  0.9658596531953663  1.0000
  C   C1        1.0  0.568926069769077  0.7233043550513685  0.9576277921441942  1.0000
  C   C2        1.0  0.8151479478692636  0.518827326130122  0.24790040488005616  1.0000
  O   O1        1.0  0.9186925802205224  0.6108690514811315  0.1717415459570475  1.0000
  O   O2        1.0  0.5400120371486992  0.996995171502931  0.7100158943794668  1.0000
  O   O3        1.0  0.8619461482958286  0.5811068514885847  0.11789113515987992  1.0000
  O   O4        1.0  0.29729549164767377  0.5555597372585908  0.04942647030111402  1.0000
  O   O5        1.0  0.5196149447147036  0.914709075121209  0.18145479692611843  1.0000
  O   O6        1.0  0.19153203370660776  0.6481065816478804  0.23336449476482812  1.0000
  O   O7        1.0  0.07027251538238488  0.5609299702919088  0.7843246330157854  1.0000
  O   O8        1.0  0.9749341358110541  0.24089135308167897  0.8963976427621674  1.0000
  O   O9        1.0  0.830920719075948  0.37328101287130266  0.24611419293796644  1.0000
  O   O10       1.0  0.636660603195196  0.009670461957284715  0.3436808673723135  1.0000
  O   O11       1.0  0.3203597046958748  0.3176609752699733  0.9516111296252348  1.0000
  O   O12       1.0  0.6606929134577513  0.7383325934206368  0.6496119011135306  1.0000
  O   O13       1.0  0.7687751905759797  0.16219142044428736  0.7276972189429216  1.0000
  O   O14       1.0  0.43961552786640823  0.4715192732983269  0.5523533457890153  1.0000
data_image15
_chemical_formula_structural       Pr2P2H10C2O14
_chemical_formula_sum              "Pr2 P2 H10 C2 O14"
_cell_length_a       6.761788999999999
_cell_length_b       7.146483751908908
_cell_length_c       7.843598011864962
_cell_angle_alpha    110.54253585495134
_cell_angle_beta     95.79501476046597
_cell_angle_gamma    89.49575901902455

_space_group_name_H-M_alt    "P 1"
_space_group_IT_number       1

loop_
  _space_group_symop_operation_xyz
  'x, y, z'

loop_
  _atom_site_type_symbol
  _atom_site_label
  _atom_site_symmetry_multiplicity
  _atom_site_fract_x
  _atom_site_fract_y
  _atom_site_fract_z
  _atom_site_occupancy
  Pr  Pr1       1.0  0.8854111735709012  0.7122017018991755  0.41768379636778263  1.0000
  Pr  Pr2       1.0  0.6726262932643294  0.29149783588945866  0.20676878839731216  1.0000
  P   P1        1.0  0.9837215710431337  0.3097499031573534  0.4247748479247093  1.0000
  P   P2        1.0  0.9849292114377022  0.15879136323928833  0.39624306932091713  1.0000
  H   H1        1.0  0.15215323399752378  0.31554155610501766  0.5886908136308193  1.0000
  H   H2        1.0  0.8670778207015246  0.9349143523722887  0.9068165253847837  1.0000
  H   H3        1.0  0.7748077507130802  0.7728727390058339  0.07805017102509737  1.0000
  H   H4        1.0  0.8520192019641399  0.4980265237390995  0.5369829423725605  1.0000
  H   H5        1.0  0.24854680139105767  0.2521112993126735  0.4500040758866817  1.0000
  H   H6        1.0  0.7398493506480008  0.4146708248881623  0.870505987200886  1.0000
  H   H7        1.0  0.02429069601930678  0.8568386738188565  0.2414710856974125  1.0000
  H   H8        1.0  0.11418928287457675  0.21278152824379504  0.257246155757457  1.0000
  H   H9        1.0  0.9032457061111927  0.3106079902499914  0.09383482113480568  1.0000
  H   H10       1.0  0.7869843865046278  0.2481459042755887  0.9203901579603553  1.0000
  C   C1        1.0  0.8209684427129105  0.19805740984156728  0.38727252185344696  1.0000
  C   C2        1.0  0.4948105897055939  0.8707923423498869  0.6007448771269992  1.0000
  O   O1        1.0  0.2545923108700663  0.06176919362042099  0.1230308800295461  1.0000
  O   O2        1.0  0.1432678165147081  0.09258140341262333  0.5963191066985019  1.0000
  O   O3        1.0  0.20364898785192054  0.1959855771419825  0.25671089644310996  1.0000
  O   O4        1.0  0.4582019211957231  0.4314661673270166  0.5978979405481368  1.0000
  O   O5        1.0  0.7989143246595631  0.8724881745874882  0.6444545184494928  1.0000
  O   O6        1.0  0.8550270986597752  0.533652861835435  0.4339011395495618  1.0000
  O   O7        1.0  0.3835611622489523  0.6785218160512159  0.01351138153404463  1.0000
  O   O8        1.0  0.1533157195081003  0.29467381787253544  0.8405044169485336  1.0000
  O   O9        1.0  0.7468744227662683  0.29069930489640683  0.32366296206600964  1.0000
  O   O10       1.0  0.6277879471017513  0.8343639067315962  0.831468653608681  1.0000
  O   O11       1.0  0.016740503459004685  0.5695359483361244  0.1573520472884411  1.0000
  O   O12       1.0  0.5386783266585553  0.6187147802265827  0.619985961355269  1.0000
  O   O13       1.0  0.4405598380835727  0.48453570913989097  0.9546502934535965  1.0000
  O   O14       1.0  0.28240494383499026  0.7597872803453356  0.7595983238425106  1.0000
data_image16
_chemical_formula_structural       Pr2P2H10C2O14
_chemical_formula_sum              "Pr2 P2 H10 C2 O14"
_cell_length_a       6.761788999999999
_cell_length_b       7.146483751908908
_cell_length_c       7.843598011864962
_cell_angle_alpha    110.54253585495134
_cell_angle_beta     95.79501476046597
_cell_angle_gamma    89.49575901902455

_space_group_name_H-M_alt    "P 1"
_space_group_IT_number       1

loop_
  _space_group_symop_operation_xyz
  'x, y, z'

loop_
  _atom_site_type_symbol
  _atom_site_label
  _atom_site_symmetry_multiplicity
  _atom_site_fract_x
  _atom_site_fract_y
  _atom_site_fract_z
  _atom_site_occupancy
  Pr  Pr1       1.0  0.4447840248903958  0.9869672955828719  0.66128283560829  1.0000
  Pr  Pr2       1.0  0.7619150951504707  0.16489718295633793  0.8667232962325215  1.0000
  P   P1        1.0  0.481828099116683  0.7938147485256195  0.5169555246829987  1.0000
  P   P2        1.0  0.5321856141090393  0.4501117318868637  0.3533692993223667  1.0000
  H   H1        1.0  0.14282746333628893  0.43856318667531013  0.18674830673262477  1.0000
  H   H2        1.0  0.634116162545979  0.33817902859300375  0.9559214971959591  1.0000
  H   H3        1.0  0.15140964463353157  0.14415684388950467  0.8889608285389841  1.0000
  H   H4        1.0  0.5617728810757399  0.955836477689445  0.05541579611599445  1.0000
  H   H5        1.0  0.09662821553138201  0.11948731984011829  0.668425959389424  1.0000
  H   H6        1.0  0.6238377599511296  0.887556248693727  0.9364888430573046  1.0000
  H   H7        1.0  0.07300320314243436  0.13606232218444347  0.29961283784359694  1.0000
  H   H8        1.0  0.03802468511275947  0.7435024376027286  0.1594057024922222  1.0000
  H   H9        1.0  0.5467808349058032  0.45760391280055046  0.3265564125031233  1.0000
  H   H10       1.0  0.675495607079938  0.30940578575246036  0.10559469973668456  1.0000
  C   C1        1.0  0.10057086707092822  0.809154468588531  0.026317260693758726  1.0000
  C   C2        1.0  0.7499253402929753  0.4813708714209497  0.3030437890556641  1.0000
  O   O1        1.0  0.43332190584624186  0.4244465025840327  0.9227104255696759  1.0000
  O   O2        1.0  0.3302598203299567  0.5749250857406878  0.5075335847213864  1.0000
  O   O3        1.0  0.01066916438867338  0.10417271450751286  0.7008403670915868  1.0000
  O   O4        1.0  0.5457479883334599  0.5996454699197784  0.18665823328774422  1.0000
  O   O5        1.0  0.6605037109984551  0.23671198007650673  0.38461384538095444  1.0000
  O   O6        1.0  0.06755151337347343  0.570451584761031  0.38467058673268184  1.0000
  O   O7        1.0  0.12619838147656992  0.47620311177161057  0.7896603786211926  1.0000
  O   O8        1.0  0.3675760916630679  0.3917353447395726  0.3425309538579313  1.0000
  O   O9        1.0  0.5149146406911314  0.8263872029492632  0.5650271865888499  1.0000
  O   O10       1.0  0.30331427228520624  0.8267988066072576  0.42818840280233417  1.0000
  O   O11       1.0  0.2989274623396341  0.25006558644236065  0.24778472159232479  1.0000
  O   O12       1.0  0.6818582088599214  0.47721240458486136  0.7383943960594479  1.0000
  O   O13       1.0  0.8122649926226586  0.5848899995908141  0.717008599312976  1.0000
  O   O14       1.0  0.7663918421603739  0.3969216807745397  0.5551298034843057  1.0000
data_image17
_chemical_formula_structural       Pr2P2H10C2O14
_chemical_formula_sum              "Pr2 P2 H10 C2 O14"
_cell_length_a       6.761788999999999
_cell_length_b       7.146483751908908
_cell_length_c       7.843598011864962
_cell_angle_alpha    110.54253585495134
_cell_angle_beta     95.79501476046597
_cell_angle_gamma    89.49575901902455

_space_group_name_H-M_alt    "P 1"
_space_group_IT_number       1

loop_
  _space_group_symop_operation_xyz
  'x, y, z'

loop_
  _atom_site_type_symbol
  _atom_site_label
  _atom_site_symmetry_multiplicity
  _atom_site_fract_x
  _atom_site_fract_y
  _atom_site_fract_z
  _atom_site_occupancy
  Pr  Pr1       1.0  0.6322460433584638  0.47651573442999506  0.019493023442919366  1.0000
  Pr  Pr2       1.0  0.7673589857295156  0.49452934972941875  0.12913544289767742  1.0000
  P   P1        1.0  0.08191458880901337  0.4960082359611988  0.1167181245982647  1.0000
  P   P2        1.0  0.27074016630649567  0.06940608471632004  0.01758488640189171  1.0000
  H   H1        1.0  0.6800719471648335  0.6818952215835452  0.11529008811339736  1.0000
  H   H2        1.0  0.390388430794701  0.15310926968231797  0.08926276303827763  1.0000
  H   H3        1.0  0.3500288068316877  0.6007480912376195  0.24495714576914907  1.0000
  H   H4        1.0  0.19579682312905788  0.5495091304183006  0.20248176576569676  1.0000
  H   H5        1.0  0.9071172986878082  0.8184533928288147  0.8373654832830653  1.0000
  H   H6        1.0  0.7419920205138624  0.37435423012357205  0.8245419750455767  1.0000
  H   H7        1.0  0.5118856951594353  0.49217224353924394  0.9440779909491539  1.0000
  H   H8        1.0  0.8232743397820741  0.9250110634602606  0.037311608204618096  1.0000
  H   H9        1.0  0.5234563462436199  0.7146203685551882  0.43831655755639076  1.0000
  H   H10       1.0  0.08229947945801541  0.11623628402594477  0.2587319815065712  1.0000
  C   C1        1.0  0.14377417170908302  0.32546150172129273  0.4744656963739544  1.0000
  C   C2        1.0  0.42229253880213946  0.4498272300697863  0.8851703056134284  1.0000
  O   O1        1.0  0.8060470403579529  0.6171600372763351  0.5703902482055128  1.0000
  O   O2        1.0  0.37375812750542536  0.9140204613722744  0.8259495458332822  1.0000
  O   O3        1.0  0.2246879510639701  0.9838784143867088  0.7448587669241533  1.0000
  O   O4        1.0  0.9598958795540966  0.19186553184408695  0.5936358909821138  1.0000
  O   O5        1.0  0.6435959696245845  0.3908886236604303  0.9868351072072983  1.0000
  O   O6        1.0  0.9335956190188881  0.6791641554736998  0.5047289623471443  1.0000
  O   O7        1.0  0.5062845578067936  0.2755950235732598  0.8387523527198937  1.0000
  O   O8        1.0  0.09215093501916272  0.9474947769194841  0.7110523208830273  1.0000
  O   O9        1.0  0.574550076154992  0.3122093132697046  0.7345678030396812  1.0000
  O   O10       1.0  0.40645142435096204  0.31542773015098646  0.8391607609701168  1.0000
  O   O11       1.0  0.6968735678528901  0.09056203285581432  0.40914375115244184  1.0000
  O   O12       1.0  0.8716434380330611  0.6998635661657318  0.8907477465108968  1.0000
  O   O13       1.0  0.6435204406734556  0.559910494601354  0.03275020944420248  1.0000
  O   O14       1.0  0.13674867316149175  0.08430816832697019  0.7954321594443172  1.0000
data_image18
_chemical_formula_structural       Pr2P2H10C2O14
_chemical_formula_sum              "Pr2 P2 H10 C2 O14"
_cell_length_a       6.761788999999999
_cell_length_b       7.146483751908908
_cell_length_c       7.843598011864962
_cell_angle_alpha    110.54253585495134
_cell_angle_beta     95.79501476046597
_cell_angle_gamma    89.49575901902455

_space_group_name_H-M_alt    "P 1"
_space_group_IT_number       1

loop_
  _space_group_symop_operation_xyz
  'x, y, z'

loop_
  _atom_site_type_symbol
  _atom_site_label
  _atom_site_symmetry_multiplicity
  _atom_site_fract_x
  _atom_site_fract_y
  _atom_site_fract_z
  _atom_site_occupancy
  Pr  Pr1       1.0  0.5335090701119043  0.7008957677608123  0.6618221482203808  1.0000
  Pr  Pr2       1.0  0.25985523872077465  0.3657776266336441  0.17916423920542002  1.0000
  P   P1        1.0  0.606120316311717  0.49769673123955727  0.8346304837614298  1.0000
  P   P2        1.0  0.34152432531118393  0.16010324656963348  0.20724928006529808  1.0000
  H   H1        1.0  0.7255916227586567  0.2994842203333974  0.7789084548130631  1.0000
  H   H2        1.0  0.71956777991727  0.7049459596164525  0.13851819932460785  1.0000
  H   H3        1.0  0.471221424639225  0.8389557511545718  0.8692742572166026  1.0000
  H   H4        1.0  0.8951783832162619  0.8823912888765335  0.875422419514507  1.0000
  H   H5        1.0  0.17457097733858973  0.21630251710303128  0.39763708267128095  1.0000
  H   H6        1.0  0.360027814283967  0.9318222675938159  0.41948170540854335  1.0000
  H   H7        1.0  0.04381814948283136  0.6237954148091376  0.5455635753460228  1.0000
  H   H8        1.0  0.16892822098452598  0.3533815867267549  0.5056635707151145  1.0000
  H   H9        1.0  0.49167191982269287  0.6210399325937033  0.7093743961304426  1.0000
  H   H10       1.0  0.44573485146975145  0.7911942931823432  0.5225999034009874  1.0000
  C   C1        1.0  0.6191447200253606  0.593887965194881  0.5799075320828706  1.0000
  C   C2        1.0  0.07154444209299982  0.9832040555775166  0.9176691808388568  1.0000
  O   O1        1.0  0.23910721787251532  0.9899932776461355  0.1182230987760704  1.0000
  O   O2        1.0  0.7094185155583546  0.9982783554587513  0.6168020940385759  1.0000
  O   O3        1.0  0.03140376150258817  0.13405977206275566  0.05178464406526473  1.0000
  O   O4        1.0  0.4027900325600058  0.20436457986943424  0.7562579954974353  1.0000
  O   O5        1.0  0.6728269089944661  0.5096247181063518  0.31683112017344683  1.0000
  O   O6        1.0  0.4390244946225721  0.4735524406423792  0.16657798011146951  1.0000
  O   O7        1.0  0.1760513589688344  0.7669415347918402  0.35540529814898036  1.0000
  O   O8        1.0  0.5980363695198321  0.2075897097820416  0.009235314748366363  1.0000
  O   O9        1.0  0.9739981987513602  0.14497799763921648  0.9487961849663407  1.0000
  O   O10       1.0  0.8681530932954047  0.6152311346231727  0.014971338725445094  1.0000
  O   O11       1.0  0.2805817028856836  0.3288810006342828  0.2874076258158311  1.0000
  O   O12       1.0  0.021298400723026134  0.3986047997750575  0.46364767325576395  1.0000
  O   O13       1.0  0.556125104194507  0.6164210326969624  0.3057538067805581  1.0000
  O   O14       1.0  0.1676915716379881  0.8121847393922508  0.8383408901281655  1.0000
data_image19
_chemical_formula_structural       Pr2P2H10C2O14
_chemical_formula_sum              "Pr2 P2 H10 C2 O14"
_cell_length_a       6.761788999999999
_cell_length_b       7.146483751908908
_cell_length_c       7.843598011864962
_cell_angle_alpha    110.54253585495134
_cell_angle_beta     95.79501476046597
_cell_angle_gamma    89.49575901902455

_space_group_name_H-M_alt    "P 1"
_space_group_IT_number       1

loop_
  _space_group_symop_operation_xyz
  'x, y, z'

loop_
  _atom_site_type_symbol
  _atom_site_label
  _atom_site_symmetry_multiplicity
  _atom_site_fract_x
  _atom_site_fract_y
  _atom_site_fract_z
  _atom_site_occupancy
  Pr  Pr1       1.0  0.2920751653437037  0.16156768094515428  0.6397194581804797  1.0000
  Pr  Pr2       1.0  0.496352382004261  0.23306213319301605  0.42308650631457567  1.0000
  P   P1        1.0  0.24486209359019995  0.3017181009054184  0.06820308975875378  1.0000
  P   P2        1.0  0.9786476641893387  0.10954779386520386  0.6648693978786469  1.0000
  H   H1        1.0  0.10291206510737538  0.49993291962891817  0.7595757194794714  1.0000
  H   H2        1.0  0.778226223308593  0.7263568989001215  0.5019376426935196  1.0000
  H   H3        1.0  0.794807109516114  0.7420344047714025  0.40820848708972335  1.0000
  H   H4        1.0  0.8371749371290207  0.792357481084764  0.5818338738754392  1.0000
  H   H5        1.0  0.9064366381498985  0.2946389128919691  0.47817794780712575  1.0000
  H   H6        1.0  0.5459610954858363  0.32674608065281063  0.6783945979550481  1.0000
  H   H7        1.0  0.33579312125220895  0.7748930086381733  0.38737827725708485  1.0000
  H   H8        1.0  0.5890951129840687  0.8805154651636258  0.23705071676522493  1.0000
  H   H9        1.0  0.9038307759910822  0.6561064161360264  0.09379970841109753  1.0000
  H   H10       1.0  0.4213374867103994  0.35099038179032505  0.13448450877331197  1.0000
  C   C1        1.0  0.1836370867677033  0.5183008965104818  0.4211393080186099  1.0000
  C   C2        1.0  0.5467394237639382  0.21225756220519543  0.35481270879972726  1.0000
  O   O1        1.0  0.606632486655144  0.9603731620591134  0.6728476518765092  1.0000
  O   O2        1.0  0.44283618993358687  0.005768846342107281  0.821573322173208  1.0000
  O   O3        1.0  0.3091432832297869  0.05867426437907852  0.35316427182988264  1.0000
  O   O4        1.0  0.9801818913547322  0.2684973869472742  0.9888883596286178  1.0000
  O   O5        1.0  0.23565894545754418  0.5529422798426822  0.07310897001298144  1.0000
  O   O6        1.0  0.48707035317784175  0.2742300505778985  0.8091879064159002  1.0000
  O   O7        1.0  0.8561564967094455  0.873358840632136  0.8096637866983656  1.0000
  O   O8        1.0  0.8149348641672987  0.38641288844519295  0.5682137639741995  1.0000
  O   O9        1.0  0.10084493085741997  0.5990887999068946  0.6690168776549399  1.0000
  O   O10       1.0  0.5255296121758875  0.41841764688433614  0.27865644171652093  1.0000
  O   O11       1.0  0.5524907398648793  0.6927738809026778  0.2139797561103478  1.0000
  O   O12       1.0  0.8858448176906677  0.3605341921793297  0.6445178814174142  1.0000
  O   O13       1.0  0.5235528480261564  0.4052625849144533  0.7457079780288041  1.0000
  O   O14       1.0  0.6063894424587488  0.580362057313323  0.7341109842527658  1.0000
data_image20
_chemical_formula_structural       Pr2P2H10C2O14
_chemical_formula_sum              "Pr2 P2 H10 C2 O14"
_cell_length_a       6.761788999999999
_cell_length_b       7.146483751908908
_cell_length_c       7.843598011864962
_cell_angle_alpha    110.54253585495134
_cell_angle_beta     95.79501476046597
_cell_angle_gamma    89.49575901902455

_space_group_name_H-M_alt    "P 1"
_space_group_IT_number       1

loop_
  _space_group_symop_operation_xyz
  'x, y, z'

loop_
  _atom_site_type_symbol
  _atom_site_label
  _atom_site_symmetry_multiplicity
  _atom_site_fract_x
  _atom_site_fract_y
  _atom_site_fract_z
  _atom_site_occupancy
  Pr  Pr1       1.0  0.25158722218475305  0.3702279311401071  0.4879623536980944  1.0000
  Pr  Pr2       1.0  0.8497545998543501  0.44721327163279057  0.8118096785619855  1.0000
  P   P1        1.0  0.5064181592315435  0.20082790032029152  0.9666630197316408  1.0000
  P   P2        1.0  0.7377052009105682  0.006818078458309174  0.14464447647333145  1.0000
  H   H1        1.0  0.3883274160325527  0.6868753582239151  0.5992403333075345  1.0000
  H   H2        1.0  0.8596488735638559  0.7653063186444342  0.2833917662501335  1.0000
  H   H3        1.0  0.025227880803868175  0.37841267650946975  0.07503250101581216  1.0000
  H   H4        1.0  0.8255207054316998  0.6954794730991125  0.2511390456929803  1.0000
  H   H5        1.0  0.28037290554493666  0.034288553753867745  0.7669986587716267  1.0000
  H   H6        1.0  0.16107644699513912  0.4178963245358318  0.7772078276611865  1.0000
  H   H7        1.0  0.6612277538515627  0.38440180476754904  0.38447226397693157  1.0000
  H   H8        1.0  0.8319826951483265  0.9171807894017547  0.5853109420277178  1.0000
  H   H9        1.0  0.995536120608449  0.4220376946032047  0.03139484487473965  1.0000
  H   H10       1.0  0.0423305545700714  0.9318884571548551  0.48313472140580416  1.0000
  C   C1        1.0  0.6101925291586667  0.22524811327457428  0.18737917090766132  1.0000
  C   C2        1.0  0.2242897121468559  0.5400810148566961  0.9854726511402987  1.0000
  O   O1        1.0  0.6528810762974899  0.3718813942396082  0.5517785932170227  1.0000
  O   O2        1.0  0.14629997295560315  0.2808412525919266  0.7738263169303536  1.0000
  O   O3        1.0  0.6186618111678399  0.0308989159821067  0.7660225367289968  1.0000
  O   O4        1.0  0.901349761406891  0.6558367396937683  0.20535707450471818  1.0000
  O   O5        1.0  0.8180404867744073  0.5503000542521477  0.913604129687883  1.0000
  O   O6        1.0  0.23008870109333657  0.31526529940310866  0.0658374644262949  1.0000
  O   O7        1.0  0.05152857663051691  0.4670783223846229  0.8084139658312779  1.0000
  O   O8        1.0  0.2759910755776218  0.7158285137265921  0.29633786915655946  1.0000
  O   O9        1.0  0.12914230138994753  0.30904919328168035  0.45414915087167174  1.0000
  O   O10       1.0  0.3704219035280403  0.5342922979471041  0.7310336009832099  1.0000
  O   O11       1.0  0.351185043771693  0.39835748754558153  0.3251729173352942  1.0000
  O   O12       1.0  0.5711974556033965  0.3330170182198344  0.9310408922028728  1.0000
  O   O13       1.0  0.019034674623981118  0.09188969107344747  0.27888779173372313  1.0000
  O   O14       1.0  0.24555492657236755  0.37554903246928006  0.727364047896117  1.0000
data_image21
_chemical_formula_structural       Pr2P2H10C2O14
_chemical_formula_sum              "Pr2 P2 H10 C2 O14"
_cell_length_a       6.761788999999999
_cell_length_b       7.146483751908908
_cell_length_c       7.843598011864962
_cell_angle_alpha    110.54253585495134
_cell_angle_beta     95.79501476046597
_cell_angle_gamma    89.49575901902455

_space_group_name_H-M_alt    "P 1"
_space_group_IT_number       1

loop_
  _space_group_symop_operation_xyz
  'x, y, z'

loop_
  _atom_site_type_symbol
  _atom_site_label
  _atom_site_symmetry_multiplicity
  _atom_site_fract_x
  _atom_site_fract_y
  _atom_site_fract_z
  _atom_site_occupancy
  Pr  Pr1       1.0  0.7392228289245395  0.8332581916183699  0.7278233443794306  1.0000
  Pr  Pr2       1.0  0.7112836483865976  0.9891480263322592  0.41043842025101185  1.0000
  P   P1        1.0  0.25922594405710697  0.07042226381599903  0.7823438812047243  1.0000
  P   P2        1.0  0.7053953260183334  0.9949642568826675  0.11585584934800863  1.0000
  H   H1        1.0  0.4855086519382894  0.07083144504576921  0.8091141865588725  1.0000
  H   H2        1.0  0.4809669128153473  0.7207798413001001  0.2695864997804165  1.0000
  H   H3        1.0  0.6159175835782662  0.517441469244659  0.8873238926753402  1.0000
  H   H4        1.0  0.014142446219921112  0.7913825958967209  0.5920664174482226  1.0000
  H   H5        1.0  0.10103304209769703  0.5951601681299508  0.3803272135555744  1.0000
  H   H6        1.0  0.353888847399503  0.4741601808927953  0.42852346086874604  1.0000
  H   H7        1.0  0.9436537767760456  0.3640160229988396  0.4133318616077304  1.0000
  H   H8        1.0  0.9482761574909091  0.9154132027179003  0.9509858689270914  1.0000
  H   H9        1.0  0.886166401207447  0.6209791693836451  0.10996608808636665  1.0000
  H   H10       1.0  0.43612455850234255  0.04292833537328988  0.03065482503734529  1.0000
  C   C1        1.0  0.44254831864964217  0.9365756381303072  0.9775420818477869  1.0000
  C   C2        1.0  0.11945519829168916  0.20540225924924016  0.9150734998402186  1.0000
  O   O1        1.0  0.4684587804658804  0.6524216919206083  0.8085919102013577  1.0000
  O   O2        1.0  0.68628547526896  0.6572786174447174  0.5820402323734015  1.0000
  O   O3        1.0  0.021528151642996818  0.9822474300599424  0.44739879281223693  1.0000
  O   O4        1.0  0.8965275376103818  0.08278302720282227  0.7746195500949398  1.0000
  O   O5        1.0  0.11675306467805058  0.5970735757146031  0.9907814739854075  1.0000
  O   O6        1.0  0.6224511465770775  0.747264889156213  0.8001212626404595  1.0000
  O   O7        1.0  0.685735044782632  0.3600618080672575  0.9098007088468876  1.0000
  O   O8        1.0  0.9676395907008555  0.6722036832361482  0.04712458501307992  1.0000
  O   O9        1.0  0.6085483564529568  0.3407772791106254  0.03567459009354934  1.0000
  O   O10       1.0  0.8995978939055931  0.8891093079000711  0.15099987902431167  1.0000
  O   O11       1.0  0.7221444731330848  0.15692646452225745  0.014300230715889484  1.0000
  O   O12       1.0  0.7567140871833544  0.9222358316791031  0.3234974539227551  1.0000
  O   O13       1.0  0.9354846156202257  0.7664356949971989  0.9362887753522955  1.0000
  O   O14       1.0  0.9277487786021084  0.9541190782329068  0.9207414323464036  1.0000
data_image22
_chemical_formula_structural       Pr2P2H10C2O14
_chemical_formula_sum              "Pr2 P2 H10 C2 O14"
_cell_length_a       6.761788999999999
_cell_length_b       7.146483751908908
_cell_length_c       7.843598011864962
_cell_angle_alpha    110.54253585495134
_cell_angle_beta     95.79501476046597
_cell_angle_gamma    89.49575901902455

_space_group_name_H-M_alt    "P 1"
_space_group_IT_number       1

loop_
  _space_group_symop_operation_xyz
  'x, y, z'

loop_
  _atom_site_type_symbol
  _atom_site_label
  _atom_site_symmetry_multiplicity
  _atom_site_fract_x
  _atom_site_fract_y
  _atom_site_fract_z
  _atom_site_occupancy
  Pr  Pr1       1.0  0.9716358821024187  0.021430051885545254  0.6748963764766813  1.0000
  Pr  Pr2       1.0  0.8035071957856417  0.6842597592622042  0.020839628763496876  1.0000
  P   P1        1.0  0.7434001490473747  0.6822434831410646  0.3861094266176224  1.0000
  P   P2        1.0  0.6225809454917908  0.46549317240715027  0.7009273041039705  1.0000
  H   H1        1.0  0.0733139393851161  0.6705660475417972  0.7634677118621767  1.0000
  H   H2        1.0  0.3898073479067534  0.6097764195874333  0.7883047591894865  1.0000
  H   H3        1.0  0.6034741967450827  0.43175021559000015  0.6606930522248149  1.0000
  H   H4        1.0  0.017912672832608223  0.563096416182816  0.5227689468301833  1.0000
  H   H5        1.0  0.24564441150869243  0.8001938761444762  0.7246968382969499  1.0000
  H   H6        1.0  0.5396713796071708  0.05524851393420249  0.645245935767889  1.0000
  H   H7        1.0  0.3971732337959111  0.6930349711328745  0.06365904258564115  1.0000
  H   H8        1.0  0.27230757009238005  0.8559356384212151  0.9642169196158648  1.0000
  H   H9        1.0  0.7168880440294743  0.4795275181531906  0.5647812243551016  1.0000
  H   H10       1.0  0.8807112717186101  0.40566354512702674  0.5362020211759955  1.0000
  C   C1        1.0  0.5638339504366741  0.5955665158107877  0.19266614131629467  1.0000
  C   C2        1.0  0.7944505310151726  0.6663753231987357  0.05309146724175662  1.0000
  O   O1        1.0  0.6691106363432482  0.7813398902653717  0.503711213968927  1.0000
  O   O2        1.0  0.20054932357743382  0.535035491513554  0.8049996208865196  1.0000
  O   O3        1.0  0.504498528316617  0.4767987997329328  0.7872369387905565  1.0000
  O   O4        1.0  0.053901599487289786  0.8956450361292809  0.02465942909475416  1.0000
  O   O5        1.0  0.04041631193831563  0.5601076913299039  0.28830980142811313  1.0000
  O   O6        1.0  0.6570363727296353  0.8622524846869055  0.8967597262671916  1.0000
  O   O7        1.0  0.26486123565700836  0.5749333324893087  0.018066992633976042  1.0000
  O   O8        1.0  0.18045438344415743  0.9232785053900443  0.4813543486307026  1.0000
  O   O9        1.0  0.28136986517347395  0.9030071554007009  0.45832660677842796  1.0000
  O   O10       1.0  0.7445215365150943  0.08892198863031808  0.5447687882297032  1.0000
  O   O11       1.0  0.6784293650489417  0.6937995861662785  0.577473399869632  1.0000
  O   O12       1.0  0.7958828148402972  0.6002541038615163  0.6868661751359468  1.0000
  O   O13       1.0  0.8662829876411706  0.6080785772064701  0.5686476071132347  1.0000
  O   O14       1.0  0.6656146696768701  0.734512294002343  0.19833674049004912  1.0000
data_image23
_chemical_formula_structural       Pr2P2H10C2O14
_chemical_formula_sum              "Pr2 P2 H10 C2 O14"
_cell_length_a       6.761788999999999
_cell_length_b       7.146483751908908
_cell_length_c       7.843598011864962
_cell_angle_alpha    110.54253585495134
_cell_angle_beta     95.79501476046597
_cell_angle_gamma    89.49575901902455

_space_group_name_H-M_alt    "P 1"
_space_group_IT_number       1

loop_
  _space_group_symop_operation_xyz
  'x, y, z'

loop_
  _atom_site_type_symbol
  _atom_site_label
  _atom_site_symmetry_multiplicity
  _atom_site_fract_x
  _atom_site_fract_y
  _atom_site_fract_z
  _atom_site_occupancy
  Pr  Pr1       1.0  0.9495453166018706  0.1479656227893429  0.23719671071739867  1.0000
  Pr  Pr2       1.0  0.3266284028068185  0.9767380133271217  0.8844826961867511  1.0000
  P   P1        1.0  0.9221602883189917  0.5475395265966654  0.18749024160206318  1.0000
  P   P2        1.0  0.40847333520650864  0.35996730625629425  0.15783467888832092  1.0000
  H   H1        1.0  0.8831944223493338  0.19767728727310896  0.6417778506875038  1.0000
  H   H2        1.0  0.7455651792697608  0.09175630193203688  0.22321720141917467  1.0000
  H   H3        1.0  0.8623287444934249  0.794558685272932  0.5789576829411089  1.0000
  H   H4        1.0  0.8294580802321434  0.5520749315619469  0.7878711186349392  1.0000
  H   H5        1.0  0.6039365541437292  0.41002106154337525  0.8090281041804701  1.0000
  H   H6        1.0  0.5421651853248477  0.5579333486966789  0.2251134617254138  1.0000
  H   H7        1.0  0.8377716853283346  0.28623932506889105  0.7004250208847225  1.0000
  H   H8        1.0  0.6599447231274098  0.2783886819379404  0.7715494323056191  1.0000
  H   H9        1.0  0.2230828646570444  0.433905566111207  0.276081083342433  1.0000
  H   H10       1.0  0.31659225083421916  0.9017577500781044  0.10651914798654616  1.0000
  C   C1        1.0  0.8307032447773963  0.12911863159388304  0.557551248697564  1.0000
  C   C2        1.0  0.9094106591073796  0.015911401249468327  0.9480784024635796  1.0000
  O   O1        1.0  0.1883299651381094  0.279038957611192  0.051837739563779905  1.0000
  O   O2        1.0  0.7761967610567808  0.388761987676844  0.6264273060951382  1.0000
  O   O3        1.0  0.9230509173939936  0.08370287347497651  0.6732740921816003  1.0000
  O   O4        1.0  0.648819163441658  0.6505439227912575  0.20553893072064966  1.0000
  O   O5        1.0  0.5049593503354117  0.5429290161700919  0.17412060213973746  1.0000
  O   O6        1.0  0.4386843166212202  0.8319501946971286  0.8431458887498593  1.0000
  O   O7        1.0  0.1566111649153754  0.36513660683522176  0.08434497867710888  1.0000
  O   O8        1.0  0.315635724371532  0.6002129864355084  0.40812757704406977  1.0000
  O   O9        1.0  0.8397455539088696  0.13728164928033948  0.9162421604851261  1.0000
  O   O10       1.0  0.2728463154344354  0.20488393159030238  0.8068056283373153  1.0000
  O   O11       1.0  0.8014698705592309  0.6953298124353751  0.41280246136011556  1.0000
  O   O12       1.0  0.9634062977711437  0.5443693473062012  0.8260188085550908  1.0000
  O   O13       1.0  0.8430475555360317  0.537448444054462  0.09553583001252264  1.0000
  O   O14       1.0  0.9701814660802484  0.8673519520671107  0.23401784780435264  1.0000
data_image24
_chemical_formula_structural       Pr2P2H10C2O14
_chemical_formula_sum              "Pr2 P2 H10 C2 O14"
_cell_length_a       6.761788999999999
_cell_length_b       7.146483751908908
_cell_length_c       7.843598011864962
_cell_angle_alpha    110.54253585495134
_cell_angle_beta     95.79501476046597
_cell_angle_gamma    89.49575901902455

_space_group_name_H-M_alt    "P 1"
_space_group_IT_number       1

loop_
  _space_group_symop_operation_xyz
  'x, y, z'

loop_
  _atom_site_type_symbol
  _atom_site_label
  _atom_site_symmetry_multiplicity
  _atom_site_fract_x
  _atom_site_fract_y
  _atom_site_fract_z
  _atom_site_occupancy
  Pr  Pr1       1.0  0.6169458257354563  0.4214062396204099  0.5914123812326579  1.0000
  Pr  Pr2       1.0  0.5509395934641361  0.8625661879777908  0.22784056887030602  1.0000
  P   P1        1.0  0.1487588956952095  0.6113800704479218  0.9631770644336939  1.0000
  P   P2        1.0  0.6750683560967445  0.7477649003267288  0.047822922468185425  1.0000
  H   H1        1.0  0.44985147472471  0.6557403691112995  0.18507702508941293  1.0000
  H   H2        1.0  0.35653940588235855  0.6721246354281902  0.04298547841608524  1.0000
  H   H3        1.0  0.09386087546590716  0.9368581492453814  0.8115093521773815  1.0000
  H   H4        1.0  0.32481591776013374  0.9758216291666031  0.38521408615633845  1.0000
  H   H5        1.0  0.1611719489155803  0.3277553552761674  0.7273650635033846  1.0000
  H   H6        1.0  0.5236234234180301  0.8824846667703241  0.16539349523372948  1.0000
  H   H7        1.0  0.40081014623865485  0.5201638955622911  0.5810582181438804  1.0000
  H   H8        1.0  0.9609768574591726  0.42530410806648433  0.7444697548635304  1.0000
  H   H9        1.0  0.9373014755547047  0.04073034226894379  0.8485527392476797  1.0000
  H   H10       1.0  0.7993378294631839  0.2716950007015839  0.26911962090525776  1.0000
  C   C1        1.0  0.9867519743274897  0.6380292517133057  0.5663262158632278  1.0000
  C   C2        1.0  0.5972116187913343  0.23293345933780074  0.7140519593376666  1.0000
  O   O1        1.0  0.5604945582454093  0.08062395337037742  0.6160547907056753  1.0000
  O   O2        1.0  0.20436999091180041  0.3549405604862841  0.8787837184499949  1.0000
  O   O3        1.0  0.7687264285632409  0.8816652124369284  0.6812038591965575  1.0000
  O   O4        1.0  0.469344430079218  0.9533923025010154  0.46551811893004924  1.0000
  O   O5        1.0  0.3084010574966669  0.1369702242081985  0.6417516161454841  1.0000
  O   O6        1.0  0.3432171458262019  0.8025048111303477  0.3962568127171835  1.0000
  O   O7        1.0  0.05517205619253218  0.17951728339085093  0.3015792920195963  1.0000
  O   O8        1.0  0.020611798216123134  0.05199361623090226  0.9339969741704408  1.0000
  O   O9        1.0  0.9172541662119329  0.8441590648144484  0.10096080880612135  1.0000
  O   O10       1.0  0.25393389930104604  0.05188108928268775  0.06993325846269727  1.0000
  O   O11       1.0  0.9605765473097563  0.0629837260930799  0.7330936291837133  1.0000
  O   O12       1.0  0.7576508485362865  0.8217435409715108  0.2995426872657845  1.0000
  O   O13       1.0  0.557338276412338  0.9820049632689916  0.01567643549060449  1.0000
  O   O14       1.0  0.864040941465646  0.2536154442932457  0.9017864293418825  1.0000
data_image25
_chemical_formula_structural       Pr2P2H10C2O14
_chemical_formula_sum              "Pr2 P2 H10 C2 O14"
_cell_length_a       6.761788999999999
_cell_length_b       7.146483751908908
_cell_length_c       7.843598011864962
_cell_angle_alpha    110.54253585495134
_cell_angle_beta     95.79501476046597
_cell_angle_gamma    89.49575901902455

_space_group_name_H-M_alt    "P 1"
_space_group_IT_number       1

loop_
  _space_group_symop_operation_xyz
  'x, y, z'

loop_
  _atom_site_type_symbol
  _atom_site_label
  _atom_site_symmetry_multiplicity
  _atom_site_fract_x
  _atom_site_fract_y
  _atom_site_fract_z
  _atom_site_occupancy
  Pr  Pr1       1.0  0.08589870162541047  0.2551233365229564  0.041627041799074505  1.0000
  Pr  Pr2       1.0  0.10880562476813793  0.6921640746295452  0.15438254503533244  1.0000
  P   P1        1.0  0.4016576111316681  0.4786842353641987  0.4054371081292629  1.0000
  P   P2        1.0  0.6665838807821274  0.24277617782354355  0.4158399188891053  1.0000
  H   H1        1.0  0.6374937603250146  0.7917494457215071  0.3310468518175185  1.0000
  H   H2        1.0  0.052783636841923  0.6491238791495562  0.14374525845050812  1.0000
  H   H3        1.0  0.7863817485049367  0.6578512457199395  0.04148702509701252  1.0000
  H   H4        1.0  0.17664894834160805  0.649579593911767  0.9187017139047384  1.0000
  H   H5        1.0  0.13689370374777354  0.582043535541743  0.24066750553902239  1.0000
  H   H6        1.0  0.12526577431708574  0.2757559912279248  0.7443223933223635  1.0000
  H   H7        1.0  0.7642564200796187  0.39168361434713006  0.5294208563864231  1.0000
  H   H8        1.0  0.0904103524517268  0.40502786089200526  0.42870251927524805  1.0000
  H   H9        1.0  0.4276015926152468  0.905499454587698  0.9121345169842243  1.0000
  H   H10       1.0  0.4012057336512953  0.8050157451070845  0.9326433043461293  1.0000
  C   C1        1.0  0.30325097288005054  0.8474162644706666  0.1295631278771907  1.0000
  C   C2        1.0  0.5827930986415595  0.3692395710386336  0.48971804392931517  1.0000
  O   O1        1.0  0.30353670779732056  0.34806067624595016  0.1313120967533905  1.0000
  O   O2        1.0  0.012860757240559906  0.7004848344586208  0.01214810204692185  1.0000
  O   O3        1.0  0.24659276026068255  0.3357714681842481  0.12573741708638408  1.0000
  O   O4        1.0  0.612833432329353  0.7462801630608737  0.35970716818701476  1.0000
  O   O5        1.0  0.24813623074442148  0.07611425954382867  0.9897881268989295  1.0000
  O   O6        1.0  0.18632189985964942  0.8266317549860105  0.19412883740733378  1.0000
  O   O7        1.0  0.6061005366209429  0.8397537928049132  0.9892584667832125  1.0000
  O   O8        1.0  0.9375615356839262  0.7081163015100174  0.28703586134361103  1.0000
  O   O9        1.0  0.44109708932228386  0.3910372357349843  0.43413763295393437  1.0000
  O   O10       1.0  0.24337036746146623  0.2899205574631196  0.5504269631928764  1.0000
  O   O11       1.0  0.03165116994568962  0.5732982246699976  0.9484339172486216  1.0000
  O   O12       1.0  0.9365780077350792  0.2061285388735996  0.430376786753186  1.0000
  O   O13       1.0  0.40996981610078365  0.3097255088505335  0.5625103201600723  1.0000
  O   O14       1.0  0.1417916922364384  0.47715562058147043  0.08780594309791923  1.0000
data_image26
_chemical_formula_structural       Pr2P2H10C2O14
_chemical_formula_sum              "Pr2 P2 H10 C2 O14"
_cell_length_a       6.761788999999999
_cell_length_b       7.146483751908908
_cell_length_c       7.843598011864962
_cell_angle_alpha    110.54253585495134
_cell_angle_beta     95.79501476046597
_cell_angle_gamma    89.49575901902455

_space_group_name_H-M_alt    "P 1"
_space_group_IT_number       1

loop_
  _space_group_symop_operation_xyz
  'x, y, z'

loop_
  _atom_site_type_symbol
  _atom_site_label
  _atom_site_symmetry_multiplicity
  _atom_site_fract_x
  _atom_site_fract_y
  _atom_site_fract_z
  _atom_site_occupancy
  Pr  Pr1       1.0  0.4458445206255419  0.8407628038985422  0.7815545370540349  1.0000
  Pr  Pr2       1.0  0.9702524151653051  0.6259863805025816  0.23431493248790503  1.0000
  P   P1        1.0  0.3919841703027487  0.78631551284343  0.7090177647769451  1.0000
  P   P2        1.0  0.12630503624677658  0.11903322488069534  0.05573696084320545  1.0000
  H   H1        1.0  0.58478650636971  0.4441829053685069  0.7915784260258079  1.0000
  H   H2        1.0  0.14178990200161934  0.34053041879087687  0.4260740801692009  1.0000
  H   H3        1.0  0.9840926876058802  0.45910428930073977  0.29542085342109203  1.0000
  H   H4        1.0  0.16032204404473305  0.6174804214388132  0.4249852471984923  1.0000
  H   H5        1.0  0.33124383477843367  0.17836590285878628  0.22681792150251567  1.0000
  H   H6        1.0  0.8651745459064841  0.5705927685485221  0.3267756151035428  1.0000
  H   H7        1.0  0.5154096158221364  0.7228419682942331  0.17500853911042213  1.0000
  H   H8        1.0  0.012099307030439377  0.7720795378554612  0.22893490712158382  1.0000
  H   H9        1.0  0.8057413548231125  0.18818268552422523  0.7361056432127953  1.0000
  H   H10       1.0  0.016909434576518834  0.8530517811886966  0.01685069059021771  1.0000
  C   C1        1.0  0.9633718504337594  0.02402417315170169  0.9563690375071019  1.0000
  C   C2        1.0  0.03729754209052771  0.6078879819251597  0.24854287688503973  1.0000
  O   O1        1.0  0.26630386273609474  0.02666021283948794  0.674295889766654  1.0000
  O   O2        1.0  0.2748937829746865  0.9412147285111132  0.48193530982825905  1.0000
  O   O3        1.0  0.7590498768840916  0.46801850880729035  0.9106750340533836  1.0000
  O   O4        1.0  0.2287230339134112  0.04128153505735099  0.7055535461986437  1.0000
  O   O5        1.0  0.590568195853848  0.16935826989356428  0.43712487642187625  1.0000
  O   O6        1.0  0.5548901040783676  0.28889356170839164  0.9746301843842957  1.0000
  O   O7        1.0  0.09755592216970399  0.9347452401475493  0.5755818143952638  1.0000
  O   O8        1.0  0.5266692609293386  0.6372608045203378  0.5411210468155332  1.0000
  O   O9        1.0  0.6030415236018598  0.1045620481017977  0.8564999385271221  1.0000
  O   O10       1.0  0.520578442257829  0.694486668366153  0.44246083695907146  1.0000
  O   O11       1.0  0.6497588130077929  0.5240585969222593  0.27445853332756087  1.0000
  O   O12       1.0  0.2723196770530194  0.8345032683937461  0.9174724631520803  1.0000
  O   O13       1.0  0.08441844757180661  0.812336269300431  0.6826647453126498  1.0000
  O   O14       1.0  0.7808434828184545  0.18798816535854712  0.2963589611463249  1.0000
data_image27
_chemical_formula_structural       Pr2P2H10C2O14
_chemical_formula_sum              "Pr2 P2 H10 C2 O14"
_cell_length_a       6.761788999999999
_cell_length_b       7.146483751908908
_cell_length_c       7.843598011864962
_cell_angle_alpha    110.54253585495134
_cell_angle_beta     95.79501476046597
_cell_angle_gamma    89.49575901902455

_space_group_name_H-M_alt    "P 1"
_space_group_IT_number       1

loop_
  _space_group_symop_operation_xyz
  'x, y, z'

loop_
  _atom_site_type_symbol
  _atom_site_label
  _atom_site_symmetry_multiplicity
  _atom_site_fract_x
  _atom_site_fract_y
  _atom_site_fract_z
  _atom_site_occupancy
  Pr  Pr1       1.0  0.5669142437836854  0.06690220937889535  0.14735674227995332  1.0000
  Pr  Pr2       1.0  0.7887027338147163  0.35915457457304  0.9805971840396523  1.0000
  P   P1        1.0  0.1950795277953148  0.7575843147933483  0.9103000480681658  1.0000
  P   P2        1.0  0.2840918004512787  0.4312720075249672  0.7526711197569966  1.0000
  H   H1        1.0  0.3061323929578066  0.5106367254629731  0.6531206504441798  1.0000
  H   H2        1.0  0.3416591351851821  0.45459559839218855  0.5830569826066494  1.0000
  H   H3        1.0  0.3803060632199049  0.9667325024493039  0.420837068464607  1.0000
  H   H4        1.0  0.9182236213237047  0.6949626337736845  0.5705085787922144  1.0000
  H   H5        1.0  0.5686124324565753  0.5705836007837206  0.4828825719887391  1.0000
  H   H6        1.0  0.021230787970125675  0.9139495994895697  0.6084852037020028  1.0000
  H   H7        1.0  0.5720808464102447  0.43328610714524984  0.19664546893909574  1.0000
  H   H8        1.0  0.7991954938042909  0.3253925999160856  0.48637368460185826  1.0000
  H   H9        1.0  0.6195187959820032  0.8560870867222548  0.6142119728028774  1.0000
  H   H10       1.0  0.04679344978649169  0.9662284352816641  0.7337713547749445  1.0000
  C   C1        1.0  0.5349037972046062  0.6284463983029127  0.9419649434275925  1.0000
  C   C2        1.0  0.2736814903328195  0.7380207376554608  0.1644405402475968  1.0000
  O   O1        1.0  0.8587447723839432  0.6901141342823394  0.6684089809714351  1.0000
  O   O2        1.0  0.27764191647293046  0.5513414104352705  0.9308586004190147  1.0000
  O   O3        1.0  0.16775909170974046  0.19164111277495977  0.526705880791269  1.0000
  O   O4        1.0  0.43713556916918606  0.08003880269825459  0.9714647744549438  1.0000
  O   O5        1.0  0.9420946144964546  0.6166727136587724  0.1497835882473737  1.0000
  O   O6        1.0  0.30947094468865544  0.4405985069606686  0.8234847563580843  1.0000
  O   O7        1.0  0.2687850544898538  0.1705384839387989  0.36568170553073287  1.0000
  O   O8        1.0  0.24755984533112496  0.7715311075153295  0.5432940157479607  1.0000
  O   O9        1.0  0.22957320581190288  0.6928017879836261  0.8349193510366604  1.0000
  O   O10       1.0  0.7059098431454913  0.6371955432714458  0.682003426773008  1.0000
  O   O11       1.0  0.9894922945495637  0.6864422063226812  0.5064015273819678  1.0000
  O   O12       1.0  0.9961536395858275  0.62294927381663  0.9412959119435982  1.0000
  O   O13       1.0  0.20217732060700655  0.5345359841594473  0.3952575213625096  1.0000
  O   O14       1.0  0.7758349473588169  0.1757418435299769  0.921514232410118  1.0000
data_image28
_chemical_formula_structural       Pr2P2H10C2O14
_chemical_formula_sum              "Pr2 P2 H10 C2 O14"
_cell_length_a       6.761788999999999
_cell_length_b       7.146483751908908
_cell_length_c       7.843598011864962
_cell_angle_alpha    110.54253585495134
_cell_angle_beta     95.79501476046597
_cell_angle_gamma    89.49575901902455

_space_group_name_H-M_alt    "P 1"
_space_group_IT_number       1

loop_
  _space_group_symop_operation_xyz
  'x, y, z'

loop_
  _atom_site_type_symbol
  _atom_site_label
  _atom_site_symmetry_multiplicity
  _atom_site_fract_x
  _atom_site_fract_y
  _atom_site_fract_z
  _atom_site_occupancy
  Pr  Pr1       1.0  0.9907319143530913  0.43437462908332236  0.18136805551330326  1.0000
  Pr  Pr2       1.0  0.25092428736388683  0.5642030220478773  0.7374756927601993  1.0000
  P   P1        1.0  0.125361368060112  0.9894480602815747  0.4789434280246496  1.0000
  P   P2        1.0  0.3904031217098236  0.9542437791824341  0.15010803658515215  1.0000
  H   H1        1.0  0.07436881773173809  0.03382891323417425  0.30396965937688947  1.0000
  H   H2        1.0  0.7379848374985158  0.6155199157074094  0.9934250861406326  1.0000
  H   H3        1.0  0.6194670795230195  0.6863598674535751  0.7445097365416586  1.0000
  H   H4        1.0  0.5732938963919878  0.06640136754140258  0.24986431514844298  1.0000
  H   H5        1.0  0.7604579272447154  0.2682869241107255  0.9724180159391835  1.0000
  H   H6        1.0  0.3669205214828253  0.7354454770684242  0.009329014690592885  1.0000
  H   H7        1.0  0.33714756555855274  0.1069508446380496  0.5278029046021402  1.0000
  H   H8        1.0  0.18742589675821364  0.6151376750785857  0.21834659203886986  1.0000
  H   H9        1.0  0.17249891348183155  0.7475818190723658  0.3597385697066784  1.0000
  H   H10       1.0  0.0018065691692754626  0.31752441287972033  0.8636338447686285  1.0000
  C   C1        1.0  0.9451985465129837  0.31692842254415154  0.5358356414362788  1.0000
  C   C2        1.0  0.9164661068934947  0.12202227488160133  0.46149360171693843  1.0000
  O   O1        1.0  0.6602459369751159  0.23921134340343997  0.8520235984178726  1.0000
  O   O2        1.0  0.9875558644416742  0.321256996889133  0.20470146380830556  1.0000
  O   O3        1.0  0.7380713307647966  0.0057147875195369124  0.9089861630709493  1.0000
  O   O4        1.0  0.5420714386855252  0.3824171496089548  0.07910940505098552  1.0000
  O   O5        1.0  0.8536628118599765  0.2530706732068211  0.8760991661110893  1.0000
  O   O6        1.0  0.6613915821944829  0.5132393400926958  0.8981298284052173  1.0000
  O   O7        1.0  0.7941168380493764  0.8439192666046438  0.6670999395719264  1.0000
  O   O8        1.0  0.6945089206565171  0.355655470804777  0.4592315827612765  1.0000
  O   O9        1.0  0.29988575051538646  0.1261216204147786  0.7316922037862241  1.0000
  O   O10       1.0  0.5515139676972467  0.5971531075010716  0.42956614139257  1.0000
  O   O11       1.0  0.25617275688273367  0.48936314255115576  0.7503153496654704  1.0000
  O   O12       1.0  0.8168721346301027  0.7427920486788935  0.31729905225074617  1.0000
  O   O13       1.0  0.5286841400666162  0.05174035870004445  0.2833248510141857  1.0000
  O   O14       1.0  0.445161540992558  0.2203756332746707  0.4855589889921248  1.0000
data_image29
_chemical_formula_structural       Pr2P2H10C2O14
_chemical_formula_sum              "Pr2 P2 H10 C2 O14"
_cell_length_a       6.761788999999999
_cell_length_b       7.146483751908908
_cell_length_c       7.843598011864962
_cell_angle_alpha    110.54253585495134
_cell_angle_beta     95.79501476046597
_cell_angle_gamma    89.49575901902455

_space_group_name_H-M_alt    "P 1"
_space_group_IT_number       1

loop_
  _space_group_symop_operation_xyz
  'x, y, z'

loop_
  _atom_site_type_symbol
  _atom_site_label
  _atom_site_symmetry_multiplicity
  _atom_site_fract_x
  _atom_site_fract_y
  _atom_site_fract_z
  _atom_site_occupancy
  Pr  Pr1       1.0  0.16011873551178724  0.17346150043886155  0.9777623815461993  1.0000
  Pr  Pr2       1.0  0.03236481919884682  0.8117496725171804  0.5603037993423641  1.0000
  P   P1        1.0  0.4366449639201164  0.674641883932054  0.98626474943012  1.0000
  P   P2        1.0  0.6501337140798569  0.26118428260087967  0.2443946683779359  1.0000
  H   H1        1.0  0.6793906986713409  0.22796575259417295  0.6253627529367805  1.0000
  H   H2        1.0  0.19303488032892346  0.5788480695337057  0.529664034023881  1.0000
  H   H3        1.0  0.0383231972809881  0.6494407481513917  0.21826985478401184  1.0000
  H   H4        1.0  0.4711493393406272  0.43565424950793386  0.8331826929934323  1.0000
  H   H5        1.0  0.3180469737853855  0.19911549682728946  0.5977370223263279  1.0000
  H   H6        1.0  0.7388868639245629  0.5967283011414111  0.4666328087914735  1.0000
  H   H7        1.0  0.04582069581374526  0.2943879230879247  0.2231439114548266  1.0000
  H   H8        1.0  0.0015831675846129656  0.5383304592687637  0.6677712581586093  1.0000
  H   H9        1.0  0.34510423615574837  0.529712175950408  0.7267724890261889  1.0000
  H   H10       1.0  0.8363748023984954  0.6520146842813119  0.5052134308498353  1.0000
  C   C1        1.0  0.6463085869327188  0.7109506484121084  0.6553978021256626  1.0000
  C   C2        1.0  0.4235496730543673  0.4175501358695328  0.1289256836316781  1.0000
  O   O1        1.0  0.9873308147944044  0.8067998617771082  0.13064960282645188  1.0000
  O   O2        1.0  0.7137750511756167  0.7328117969882442  0.5989307401468977  1.0000
  O   O3        1.0  0.9558696028543636  0.5873119999887422  0.21118222790028085  1.0000
  O   O4        1.0  0.9188230417203158  0.3902200235752389  0.21062488504685462  1.0000
  O   O5        1.0  0.46803886827547103  0.4704111951868981  0.829128714860417  1.0000
  O   O6        1.0  0.8146132050314918  0.5996053544804454  0.870715644210577  1.0000
  O   O7        1.0  0.37935765620932216  0.5021612789350911  0.7350798115949146  1.0000
  O   O8        1.0  0.02434991137124598  0.5912672131962609  0.3683638909133151  1.0000
  O   O9        1.0  0.9900749430526048  0.41766243847087026  0.07595531595870852  1.0000
  O   O10       1.0  0.4201248015760939  0.48838509770212113  0.1034062979160808  1.0000
  O   O11       1.0  0.825688394223107  0.8964795870706439  0.5275503405136988  1.0000
  O   O12       1.0  0.7569474704214372  0.9139490426914563  0.24022084244643338  1.0000
  O   O13       1.0  0.1817672406323254  0.4365823573898524  0.549269930110313  1.0000
  O   O14       1.0  0.9110437692143023  0.6520107486285269  0.7123974813148379  1.0000
data_image30
_chemical_formula_structural       Pr2P2H10C2O14
_chemical_formula_sum              "Pr2 P2 H10 C2 O14"
_cell_length_a       6.761788999999999
_cell_length_b       7.146483751908908
_cell_length_c       7.843598011864962
_cell_angle_alpha    110.54253585495134
_cell_angle_beta     95.79501476046597
_cell_angle_gamma    89.49575901902455

_space_group_name_H-M_alt    "P 1"
_space_group_IT_number       1

loop_
  _space_group_symop_operation_xyz
  'x, y, z'

loop_
  _atom_site_type_symbol
  _atom_site_label
  _atom_site_symmetry_multiplicity
  _atom_site_fract_x
  _atom_site_fract_y
  _atom_site_fract_z
  _atom_site_occupancy
  Pr  Pr1       1.0  0.040719481417909265  0.30309771932661533  0.9214066560380161  1.0000
  Pr  Pr2       1.0  0.31593119353055954  0.018230224028229713  0.9086849549785256  1.0000
  P   P1        1.0  0.07199006341397762  0.6146745020523667  0.177755537442863  1.0000
  P   P2        1.0  0.458093486726284  0.7183853015303612  0.18317131861113012  1.0000
  H   H1        1.0  0.2060991688631475  0.23632954340428114  0.6841172005806584  1.0000
  H   H2        1.0  0.4922506818547845  0.3715428886935115  0.8661803854629397  1.0000
  H   H3        1.0  0.5636147237382829  0.4494987325742841  0.8947954811155796  1.0000
  H   H4        1.0  0.8054248420521617  0.6952118934132159  0.24589974898844957  1.0000
  H   H5        1.0  0.2046572205144912  0.46552790503483266  0.5646746136517322  1.0000
  H   H6        1.0  0.21984417643398046  0.7830391922034323  0.7272486898582429  1.0000
  H   H7        1.0  0.11348389042541385  0.8766179555095732  0.6701907203532755  1.0000
  H   H8        1.0  0.7775617791339755  0.7761900736950338  0.696482002036646  1.0000
  H   H9        1.0  0.2847571214661002  0.37484246864914894  0.600945008918643  1.0000
  H   H10       1.0  0.3055696845985949  0.23904029949335381  0.9436748673324473  1.0000
  C   C1        1.0  0.45661222096532583  0.7854922800324857  0.2888951930217445  1.0000
  C   C2        1.0  0.42231431929394603  0.4193495489889756  0.7276174740400165  1.0000
  O   O1        1.0  0.2633706197957508  0.6666617331793532  0.5691922807018273  1.0000
  O   O2        1.0  0.5202611855929717  0.12759078833187232  0.4217312302207574  1.0000
  O   O3        1.0  0.5869822248350829  0.5937108381476719  0.7139722146603162  1.0000
  O   O4        1.0  0.40909286675741896  0.5381043212255463  0.5998263214714825  1.0000
  O   O5        1.0  0.8086882630595937  0.21745931601617485  0.13181210460606962  1.0000
  O   O6        1.0  0.3813044041162357  0.40860133501701057  0.2954019163735211  1.0000
  O   O7        1.0  0.5124074545601616  0.7329039278120035  0.5946748544520233  1.0000
  O   O8        1.0  0.14473716920474544  0.40296972943178844  0.3164037541137077  1.0000
  O   O9        1.0  0.916524620493874  0.24369364185258746  0.15716956870164722  1.0000
  O   O10       1.0  0.8599768265848979  0.3183615439920686  0.788129220425617  1.0000
  O   O11       1.0  0.48819365695817396  0.5921396960620768  0.30611147434683517  1.0000
  O   O12       1.0  0.31965723546363733  0.3914672675928159  0.10472603795642499  1.0000
  O   O13       1.0  0.6368538773385808  0.19138568389462307  0.04523175902431831  1.0000
  O   O14       1.0  0.5523201066534966  0.375272243283689  0.07997214049100876  1.0000
data_image31
_chemical_formula_structural       Pr2P2H10C2O14
_chemical_formula_sum              "Pr2 P2 H10 C2 O14"
_cell_length_a       6.761788999999999
_cell_length_b       7.146483751908908
_cell_length_c       7.843598011864962
_cell_angle_alpha    110.54253585495134
_cell_angle_beta     95.79501476046597
_cell_angle_gamma    89.49575901902455

_space_group_name_H-M_alt    "P 1"
_space_group_IT_number       1

loop_
  _space_group_symop_operation_xyz
  'x, y, z'

loop_
  _atom_site_type_symbol
  _atom_site_label
  _atom_site_symmetry_multiplicity
  _atom_site_fract_x
  _atom_site_fract_y
  _atom_site_fract_z
  _atom_site_occupancy
  Pr  Pr1       1.0  0.822578702820465  0.34990548831410706  0.624668441247195  1.0000
  Pr  Pr2       1.0  0.005424968898296356  0.5505718234926462  0.4128745780326426  1.0000
  P   P1        1.0  0.9424948133528233  0.1824035309255123  0.19570007920265198  1.0000
  P   P2        1.0  0.47339431196451187  0.21053212881088257  0.3648158679716289  1.0000
  H   H1        1.0  0.5074657760560513  0.4960155221633613  0.9874418413382955  1.0000
  H   H2        1.0  0.6917383293621242  0.9477053200826049  0.7849039062857628  1.0000
  H   H3        1.0  0.7782817209372297  0.5324779734946787  0.7523883865214884  1.0000
  H   H4        1.0  0.4626056579872966  0.7087410879321396  0.016964287497103214  1.0000
  H   H5        1.0  0.8881376890931278  0.08935166255105287  0.9905125095392577  1.0000
  H   H6        1.0  0.5200608316808939  0.16394686413696036  0.5214985851198435  1.0000
  H   H7        1.0  0.16382502857595682  0.04574235831387341  0.8428485179319978  1.0000
  H   H8        1.0  0.634003259241581  0.30627125897444785  0.07375540374778211  1.0000
  H   H9        1.0  0.06861783424392343  0.598987590521574  0.5999098746106029  1.0000
  H   H10       1.0  0.7995638307183981  0.9647342473617755  0.24567978375125676  1.0000
  C   C1        1.0  0.22828935086727142  0.7078046966344118  0.7004815692343982  1.0000
  C   C2        1.0  0.5072706663049757  0.9425752073293552  0.08578374586068094  1.0000
  O   O1        1.0  0.14083625690545887  0.21788071893388405  0.9586968198127579  1.0000
  O   O2        1.0  0.8910903093055822  0.378267407475505  0.8455497171962634  1.0000
  O   O3        1.0  0.7014549971790984  0.9777109221104183  0.5431603802571772  1.0000
  O   O4        1.0  0.15754905506037176  0.44269567425362766  0.2688515288173221  1.0000
  O   O5        1.0  0.3961809466127306  0.586517421528697  0.03148654394317418  1.0000
  O   O6        1.0  0.3967768629081547  0.30589026352390647  0.5561835649423301  1.0000
  O   O7        1.0  0.10234775685057684  0.5264999616338173  0.2952283562917728  1.0000
  O   O8        1.0  0.6193941725650802  0.044158171134768054  0.19796513498295099  1.0000
  O   O9        1.0  0.12946889456361532  0.8827038088347763  0.008453741669654846  1.0000
  O   O10       1.0  0.6464922835293692  0.7073981938301586  0.022519718331750482  1.0000
  O   O11       1.0  0.05356840178137645  0.37662457503029145  0.2475607100641355  1.0000
  O   O12       1.0  0.04971568951077643  0.9642994440364419  0.1291731607343536  1.0000
  O   O13       1.0  0.3061857131542638  0.7479099494812544  0.38254442997276783  1.0000
  O   O14       1.0  0.7537118797190487  0.3318172839062754  0.1931507969275117  1.0000
data_image32
_chemical_formula_structural       Pr2P2H10C2O14
_chemical_formula_sum              "Pr2 P2 H10 C2 O14"
_cell_length_a       6.761788999999999
_cell_length_b       7.146483751908908
_cell_length_c       7.843598011864962
_cell_angle_alpha    110.54253585495134
_cell_angle_beta     95.79501476046597
_cell_angle_gamma    89.49575901902455

_space_group_name_H-M_alt    "P 1"
_space_group_IT_number       1

loop_
  _space_group_symop_operation_xyz
  'x, y, z'

loop_
  _atom_site_type_symbol
  _atom_site_label
  _atom_site_symmetry_multiplicity
  _atom_site_fract_x
  _atom_site_fract_y
  _atom_site_fract_z
  _atom_site_occupancy
  Pr  Pr1       1.0  0.8540433959569782  0.03758052526973188  0.7827083019074053  1.0000
  Pr  Pr2       1.0  0.394115692935884  0.7971316808834672  0.3627822792623192  1.0000
  P   P1        1.0  0.5737548526376486  0.8650520276278257  0.00878575723618269  1.0000
  P   P2        1.0  0.6642349362373352  0.8830372504889965  0.8438544012606144  1.0000
  H   H1        1.0  0.4936783309094608  0.4844895559363067  0.7711881168652326  1.0000
  H   H2        1.0  0.6678226860240102  0.4792408663779497  0.369323524646461  1.0000
  H   H3        1.0  0.4586251162691042  0.04653903562575579  0.4325456842780113  1.0000
  H   H4        1.0  0.8395594665780663  0.009485922288149595  0.5077662114053965  1.0000
  H   H5        1.0  0.03469946654513478  0.19632941379677504  0.05434886520379223  1.0000
  H   H6        1.0  0.3077924691606313  0.7296477156342007  0.9988675273489207  1.0000
  H   H7        1.0  0.22383387247100472  0.30113315349444747  0.31573879532516  1.0000
  H   H8        1.0  0.04025762062519789  0.12579489452764392  0.1878687662538141  1.0000
  H   H9        1.0  0.03032999229617417  0.5211529713124037  0.4239413533359766  1.0000
  H   H10       1.0  0.88300208048895  0.8289563900325447  0.455228627222823  1.0000
  C   C1        1.0  0.9919723276980221  0.058729792945086956  0.5494314162642695  1.0000
  C   C2        1.0  0.9793850090354681  0.33932013460434973  0.7540933648124337  1.0000
  O   O1        1.0  0.31921743362909183  0.10167668462963775  0.27168131139478646  1.0000
  O   O2        1.0  0.1360235573956743  0.07354193905484863  0.3081822016974911  1.0000
  O   O3        1.0  0.5187662369571626  0.5116550227103289  0.8326855480263475  1.0000
  O   O4        1.0  0.6562455014209263  0.5332866774406284  0.883308575314004  1.0000
  O   O5        1.0  0.4870238976436667  0.4585082307457924  0.7018851629109122  1.0000
  O   O6        1.0  0.5375385321676731  0.18130709580145776  0.029776753159239888  1.0000
  O   O7        1.0  0.8867340789311129  0.6225075605761958  0.5995505268510897  1.0000
  O   O8        1.0  0.8381499461829662  0.9781115547812078  0.13823781145038083  1.0000
  O   O9        1.0  0.36526316055096686  0.1415556452702731  0.5120953877922148  1.0000
  O   O10       1.0  0.9430460116418544  0.8833636933704838  0.6332675050164198  1.0000
  O   O11       1.0  0.22417801051051356  0.15391490189358592  0.5835967782186344  1.0000
  O   O12       1.0  0.21172666905476945  0.5435817222314654  0.26492473026155494  1.0000
  O   O13       1.0  0.8922097840113565  0.3760171494213864  0.5917445181403309  1.0000
  O   O14       1.0  0.36918858741410077  0.22821614242275245  0.2381602330133319  1.0000
data_image33
_chemical_formula_structural       Pr2P2H10C2O14
_chemical_formula_sum              "Pr2 P2 H10 C2 O14"
_cell_length_a       6.761788999999999
_cell_length_b       7.146483751908908
_cell_length_c       7.843598011864962
_cell_angle_alpha    110.54253585495134
_cell_angle_beta     95.79501476046597
_cell_angle_gamma    89.49575901902455

_space_group_name_H-M_alt    "P 1"
_space_group_IT_number       1

loop_
  _space_group_symop_operation_xyz
  'x, y, z'

loop_
  _atom_site_type_symbol
  _atom_site_label
  _atom_site_symmetry_multiplicity
  _atom_site_fract_x
  _atom_site_fract_y
  _atom_site_fract_z
  _atom_site_occupancy
  Pr  Pr1       1.0  0.7760419726837426  0.0073828850872814655  0.07859823084436357  1.0000
  Pr  Pr2       1.0  0.8400633260607719  0.03722831513732672  0.40832499641692266  1.0000
  P   P1        1.0  0.7796932905912399  0.5074025597423315  0.1070469319820404  1.0000
  P   P2        1.0  0.4052058458328247  0.36191986687481403  0.8555723484605551  1.0000
  H   H1        1.0  0.5625716638751328  0.5642630876973271  0.2196788714500144  1.0000
  H   H2        1.0  0.662413221783936  0.28496904694475234  0.8808383440473335  1.0000
  H   H3        1.0  0.8863374158972874  0.5090313642285764  0.8358521875925362  1.0000
  H   H4        1.0  0.3772102501243353  0.467301310505718  0.4364293706603348  1.0000
  H   H5        1.0  0.24705169373191893  0.9009115129010752  0.8003428725642152  1.0000
  H   H6        1.0  0.18505547987297177  0.7759902925463393  0.7744226248469204  1.0000
  H   H7        1.0  0.6744936057366431  0.9459491523448378  0.8426458928734064  1.0000
  H   H8        1.0  0.979398638010025  0.18924891483038664  0.45365299354307353  1.0000
  H   H9        1.0  0.23578478768467903  0.8449199572205544  0.3421635068953037  1.0000
  H   H10       1.0  0.522062560194172  0.6352284414460883  0.7824719501513755  1.0000
  C   C1        1.0  0.3297908743843436  0.5443840962834656  0.6950897191418335  1.0000
  C   C2        1.0  0.03834404703229666  0.5584393794415519  0.33139784284867346  1.0000
  O   O1        1.0  0.049306320026516914  0.7549040678422898  0.909663551079575  1.0000
  O   O2        1.0  0.07765612052753568  0.2330812539003091  0.7421344283502549  1.0000
  O   O3        1.0  0.10471293138107285  0.84207128721755  0.8062080140225589  1.0000
  O   O4        1.0  0.3915020404965617  0.19570355431642383  0.4708654481219128  1.0000
  O   O5        1.0  0.3694237425806932  0.3170154991094023  0.09084883518517017  1.0000
  O   O6        1.0  0.07631852151826024  0.544790274463594  0.8530533656012267  1.0000
  O   O7        1.0  0.31680854212027043  0.795524778572144  0.910659882996697  1.0000
  O   O8        1.0  0.6066990749677643  0.8274665438802913  0.8862408615532331  1.0000
  O   O9        1.0  0.08413738361559808  0.4284533888567239  0.019311429816298187  1.0000
  O   O10       1.0  0.4043590709916316  0.5908003605436534  0.4125902501982637  1.0000
  O   O11       1.0  0.7341991540452  0.15949101423029788  0.3361531434347853  1.0000
  O   O12       1.0  0.2608369661757024  0.5924357615876943  0.3633643143984955  1.0000
  O   O13       1.0  0.7931562380399555  0.3090578768751584  0.7496359110809863  1.0000
  O   O14       1.0  0.620641274843365  0.325906926416792  0.1801299573853612  1.0000
data_image34
_chemical_formula_structural       Pr2P2H10C2O14
_chemical_formula_sum              "Pr2 P2 H10 C2 O14"
_cell_length_a       6.761788999999999
_cell_length_b       7.146483751908908
_cell_length_c       7.843598011864962
_cell_angle_alpha    110.54253585495134
_cell_angle_beta     95.79501476046597
_cell_angle_gamma    89.49575901902455

_space_group_name_H-M_alt    "P 1"
_space_group_IT_number       1

loop_
  _space_group_symop_operation_xyz
  'x, y, z'

loop_
  _atom_site_type_symbol
  _atom_site_label
  _atom_site_symmetry_multiplicity
  _atom_site_fract_x
  _atom_site_fract_y
  _atom_site_fract_z
  _atom_site_occupancy
  Pr  Pr1       1.0  0.3449858983512968  0.40917816502042115  0.8524120668880641  1.0000
  Pr  Pr2       1.0  0.7844445053488016  0.6928700795397162  0.6170446955075022  1.0000
  P   P1        1.0  0.7227384615689516  0.35777407698333263  0.04264307301491499  1.0000
  P   P2        1.0  0.7877912819385529  0.699392044916749  0.8978163599967957  1.0000
  H   H1        1.0  0.6963920989073813  0.30126672936603427  0.2722726238425821  1.0000
  H   H2        1.0  0.9195258440449834  0.5762061222922057  0.46639369474723935  1.0000
  H   H3        1.0  0.18960511591285467  0.5168551811948419  0.4533604243770242  1.0000
  H   H4        1.0  0.8628676952794194  0.1464645965024829  0.7871757666580379  1.0000
  H   H5        1.0  0.35769240255467594  0.11698205070570111  0.3199548613629304  1.0000
  H   H6        1.0  0.664109522011131  0.4255910404754104  0.09530426515266299  1.0000
  H   H7        1.0  0.18971779849380255  0.6955671259202063  0.26998055214062333  1.0000
  H   H8        1.0  0.22420406574383378  0.9568510702811182  0.9241741041187197  1.0000
  H   H9        1.0  0.17897717421874404  0.39482713863253593  0.7219544993713498  1.0000
  H   H10       1.0  0.4117571909446269  0.6314294029725716  0.008421097765676677  1.0000
  C   C1        1.0  0.6383853256702423  0.529305646661669  0.8084162587765604  1.0000
  C   C2        1.0  0.9337696116417646  0.9706476156134158  0.9924236910883337  1.0000
  O   O1        1.0  0.3770053085172549  0.9671741995261982  0.5689181573688984  1.0000
  O   O2        1.0  0.898053887358401  0.4989716989657609  0.9540425486629829  1.0000
  O   O3        1.0  0.12547614553477615  0.24398655438562855  0.34808926191180944  1.0000
  O   O4        1.0  0.35998502088477835  0.2080653168959543  0.6749273916939273  1.0000
  O   O5        1.0  0.8089360510930419  0.9767459315480664  0.5109799468773417  1.0000
  O   O6        1.0  0.24812916154041886  0.08870778605341911  0.022592909983359277  1.0000
  O   O7        1.0  0.12650975108226703  0.38449094924726523  0.44039003693615086  1.0000
  O   O8        1.0  0.44515574164688587  0.8323381411610171  0.014317697321530432  1.0000
  O   O9        1.0  0.45508264121599495  0.437780984910205  0.05586496239993721  1.0000
  O   O10       1.0  0.2924907811684534  0.38127005042042583  0.6793856684234925  1.0000
  O   O11       1.0  0.7908619635563809  0.6281988902192097  0.5488928132690489  1.0000
  O   O12       1.0  0.30106488464662107  0.9607690758130047  0.4256118296761997  1.0000
  O   O13       1.0  0.21025483158882707  0.30470759494346566  0.568883570143953  1.0000
  O   O14       1.0  0.35301221907138824  0.14397796796401963  0.47303249407559633  1.0000
data_image35
_chemical_formula_structural       Pr2P2H10C2O14
_chemical_formula_sum              "Pr2 P2 H10 C2 O14"
_cell_length_a       6.761788999999999
_cell_length_b       7.146483751908908
_cell_length_c       7.843598011864962
_cell_angle_alpha    110.54253585495134
_cell_angle_beta     95.79501476046597
_cell_angle_gamma    89.49575901902455

_space_group_name_H-M_alt    "P 1"
_space_group_IT_number       1

loop_
  _space_group_symop_operation_xyz
  'x, y, z'

loop_
  _atom_site_type_symbol
  _atom_site_label
  _atom_site_symmetry_multiplicity
  _atom_site_fract_x
  _atom_site_fract_y
  _atom_site_fract_z
  _atom_site_occupancy
  Pr  Pr1       1.0  0.44090782129205763  0.3927748000714928  0.9895734011661261  1.0000
  Pr  Pr2       1.0  0.11648700013756752  0.19125265814363956  0.5020296326256357  1.0000
  P   P1        1.0  0.20558874122798443  0.7240523053333163  0.4949055928736925  1.0000
  P   P2        1.0  0.8330401256680489  0.540409067645669  0.5675116572529078  1.0000
  H   H1        1.0  0.7159585598856211  0.8772349138744175  0.6752886467147619  1.0000
  H   H2        1.0  0.5458428831771016  0.9206048905616626  0.20795407216064632  1.0000
  H   H3        1.0  0.03633910999633372  0.6977530689910054  0.36723257740959525  1.0000
  H   H4        1.0  0.8972096331417561  0.51256004255265  0.6328250714577734  1.0000
  H   H5        1.0  0.9032834370154887  0.8215874989982694  0.4782567314687185  1.0000
  H   H6        1.0  0.3315528482198715  0.8906348300552054  0.20425315154716372  1.0000
  H   H7        1.0  0.7497362829744816  0.9897591059561819  0.880202844273299  1.0000
  H   H8        1.0  0.3558859168551862  0.13518350454978645  0.7092533214017749  1.0000
  H   H9        1.0  0.9947662716731429  0.49893900379538536  0.5447409627959132  1.0000
  H   H10       1.0  0.3229381444398314  0.8530354690155946  0.8436007503187284  1.0000
  C   C1        1.0  0.8237293832935393  0.6559846978634596  0.22272245993372053  1.0000
  C   C2        1.0  0.4919529343023896  0.6526206728303805  0.09907536627724767  1.0000
  O   O1        1.0  0.5254194914596155  0.09951110265683383  0.3883088761358522  1.0000
  O   O2        1.0  0.824078016448766  0.07013194278260926  0.22371199913322926  1.0000
  O   O3        1.0  0.9858905189321376  0.6677644999581389  0.16541565413353965  1.0000
  O   O4        1.0  0.7599516392801888  0.1740618988405913  0.10814896714873612  1.0000
  O   O5        1.0  0.4866874978179112  0.7609014624031261  0.5632174739148468  1.0000
  O   O6        1.0  0.5944469554815441  0.847596091683954  0.7440405625384301  1.0000
  O   O7        1.0  0.5598072853736085  0.2245509658678202  0.44097982355742715  1.0000
  O   O8        1.0  0.12802148843184114  0.022671348124276847  0.44031734246527776  1.0000
  O   O9        1.0  0.4567278118338436  0.5206340574659407  0.0508719221688807  1.0000
  O   O10       1.0  0.7403091521700844  0.22384554974269122  0.827348196762614  1.0000
  O   O11       1.0  0.9217829176341183  0.2970291231176816  0.39109646843280643  1.0000
  O   O12       1.0  0.5572695489172474  0.5032812793506309  0.9145266041450668  1.0000
  O   O13       1.0  0.04149254283402115  0.4259046755323652  0.10998935345560312  1.0000
  O   O14       1.0  0.7284767650999129  0.9219026212522294  0.9149787705391645  1.0000
data_image36
_chemical_formula_structural       Pr2P2H10C2O14
_chemical_formula_sum              "Pr2 P2 H10 C2 O14"
_cell_length_a       6.761788999999999
_cell_length_b       7.146483751908908
_cell_length_c       7.843598011864962
_cell_angle_alpha    110.54253585495134
_cell_angle_beta     95.79501476046597
_cell_angle_gamma    89.49575901902455

_space_group_name_H-M_alt    "P 1"
_space_group_IT_number       1

loop_
  _space_group_symop_operation_xyz
  'x, y, z'

loop_
  _atom_site_type_symbol
  _atom_site_label
  _atom_site_symmetry_multiplicity
  _atom_site_fract_x
  _atom_site_fract_y
  _atom_site_fract_z
  _atom_site_occupancy
  Pr  Pr1       1.0  0.5177181987091899  0.11178031750023365  0.6347344152163714  1.0000
  Pr  Pr2       1.0  0.13067263923585415  0.17582823615521193  0.49979347095359117  1.0000
  P   P1        1.0  0.23435907438397408  0.4788950951769948  0.9209810104221106  1.0000
  P   P2        1.0  0.46044284105300903  0.775511497631669  0.7547574620693922  1.0000
  H   H1        1.0  0.42892829654738307  0.8953479644842446  0.5110658108023927  1.0000
  H   H2        1.0  0.4572351463139057  0.7269408461870626  0.3547634123824537  1.0000
  H   H3        1.0  0.2664735541911796  0.8306851941160858  0.8111719191074371  1.0000
  H   H4        1.0  0.12492111884057522  0.9258271856233478  0.48034784430637956  1.0000
  H   H5        1.0  0.45926373451948166  0.3998572458513081  0.8055066670058295  1.0000
  H   H6        1.0  0.6316573391668499  0.5072823889495339  0.09545648749917746  1.0000
  H   H7        1.0  0.11569964699447155  0.7517783709336072  0.6784234195947647  1.0000
  H   H8        1.0  0.5396396503783762  0.7338344166055322  0.5845508906058967  1.0000
  H   H9        1.0  0.24518855230417103  0.984820669516921  0.9722652547061443  1.0000
  H   H10       1.0  0.3841069368645549  0.9165665716282092  0.6396261597692501  1.0000
  C   C1        1.0  0.15541142923757434  0.5623851218260825  0.9014134076423943  1.0000
  C   C2        1.0  0.38399828877300024  0.6128055094741285  0.18315723829437047  1.0000
  O   O1        1.0  0.3588362206937745  0.5814616115530953  0.6384127882483881  1.0000
  O   O2        1.0  0.6017575262230821  0.03860093869297998  0.5805252923164517  1.0000
  O   O3        1.0  0.20871416392037645  0.43139878526562825  0.45255556877236813  1.0000
  O   O4        1.0  0.2979272117372602  0.5551634925650433  0.19567682960769162  1.0000
  O   O5        1.0  0.08736554632196203  0.14198657392989844  0.4880701508373022  1.0000
  O   O6        1.0  0.28819275624118745  0.23135884082876146  0.794523912598379  1.0000
  O   O7        1.0  0.7084693314300239  0.6688195711321896  0.20715055355685763  1.0000
  O   O8        1.0  0.3080710396170616  0.8408295635017566  0.12465860467636958  1.0000
  O   O9        1.0  0.8677583008538932  0.5042401449754834  0.09449804748874158  1.0000
  O   O10       1.0  0.5720783113501966  0.09674574882956222  0.7977487688185647  1.0000
  O   O11       1.0  0.11546984652522951  0.48094728123396635  0.3394069205969572  1.0000
  O   O12       1.0  0.46891678217070876  0.14689023079699837  0.8718976470117923  1.0000
  O   O13       1.0  0.2984668331919238  0.9933557336917147  0.3856691394466907  1.0000
  O   O14       1.0  0.45029853750020266  0.6678914485382847  0.3252809764817357  1.0000
data_image37
_chemical_formula_structural       Pr2P2H10C2O14
_chemical_formula_sum              "Pr2 P2 H10 C2 O14"
_cell_length_a       6.761788999999999
_cell_length_b       7.146483751908908
_cell_length_c       7.843598011864962
_cell_angle_alpha    110.54253585495134
_cell_angle_beta     95.79501476046597
_cell_angle_gamma    89.49575901902455

_space_group_name_H-M_alt    "P 1"
_space_group_IT_number       1

loop_
  _space_group_symop_operation_xyz
  'x, y, z'

loop_
  _atom_site_type_symbol
  _atom_site_label
  _atom_site_symmetry_multiplicity
  _atom_site_fract_x
  _atom_site_fract_y
  _atom_site_fract_z
  _atom_site_occupancy
  Pr  Pr1       1.0  0.13672358985058963  0.8375280934851617  0.6954786307178438  1.0000
  Pr  Pr2       1.0  0.890260461717844  0.10941603220999241  0.029283612908329815  1.0000
  P   P1        1.0  0.4980619065463543  0.12219716515392065  0.4977461192756891  1.0000
  P   P2        1.0  0.045033641159534454  0.9880689345300198  0.10766358114778996  1.0000
  H   H1        1.0  0.5041032647714019  0.6685105520300567  0.708981943433173  1.0000
  H   H2        1.0  0.7337972922250628  0.6716272097546607  0.3262706967070699  1.0000
  H   H3        1.0  0.039726913906633854  0.47562928404659033  0.693633696064353  1.0000
  H   H4        1.0  0.1491410043090582  0.1706163790076971  0.5823867376893759  1.0000
  H   H5        1.0  0.052981822518631816  0.7504131798632443  0.4847193281748332  1.0000
  H   H6        1.0  0.9057050873525441  0.6002065520733595  0.7012543294113129  1.0000
  H   H7        1.0  0.6714590592309833  0.38727225130423903  0.3014387325383723  1.0000
  H   H8        1.0  0.8706822306849062  0.5791472224518657  0.5771539229899645  1.0000
  H   H9        1.0  0.2922473435755819  0.4177439268678427  0.6644987352192402  1.0000
  H   H10       1.0  0.6217757135163993  0.0064933859393931925  0.18665607797447592  1.0000
  C   C1        1.0  0.24365968676283956  0.7270672381855547  0.4015475385822356  1.0000
  C   C2        1.0  0.8900781697593629  0.7058596055721864  0.4846459971740842  1.0000
  O   O1        1.0  0.9316687537357211  0.6393210788664874  0.4421715672360733  1.0000
  O   O2        1.0  0.728470011963509  0.4990184450871311  0.39696312800515443  1.0000
  O   O3        1.0  0.6271903508459218  0.30059852701378986  0.2535502990940586  1.0000
  O   O4        1.0  0.49746092298300937  0.17811110010370612  0.5777537909452803  1.0000
  O   O5        1.0  0.1015726737678051  0.8969240658916533  0.6068502107518725  1.0000
  O   O6        1.0  0.2655096866656095  0.9352561193518341  0.8913507736288011  1.0000
  O   O7        1.0  0.1354308927693637  0.1911876675003441  0.83516872805194  1.0000
  O   O8        1.0  0.3289988794713281  0.024085504410322756  0.17617344501195475  1.0000
  O   O9        1.0  0.8911438006907701  0.22500217356719077  0.14144958881661296  1.0000
  O   O10       1.0  0.3396720220334828  0.492513480654452  0.7172706112032756  1.0000
  O   O11       1.0  0.3025421507190913  0.46754044806584716  0.9548432127921842  1.0000
  O   O12       1.0  0.26710622572136344  0.7620754304516595  0.8931188034184743  1.0000
  O   O13       1.0  0.21912305627483875  0.04736603250785265  0.9982235932257026  1.0000
  O   O14       1.0  0.27804510085843503  0.7447139926080126  0.7493156883865595  1.0000
data_image38
_chemical_formula_structural       Pr2P2H10C2O14
_chemical_formula_sum              "Pr2 P2 H10 C2 O14"
_cell_length_a       6.761788999999999
_cell_length_b       7.146483751908908
_cell_length_c       7.843598011864962
_cell_angle_alpha    110.54253585495134
_cell_angle_beta     95.79501476046597
_cell_angle_gamma    89.49575901902455

_space_group_name_H-M_alt    "P 1"
_space_group_IT_number       1

loop_
  _space_group_symop_operation_xyz
  'x, y, z'

loop_
  _atom_site_type_symbol
  _atom_site_label
  _atom_site_symmetry_multiplicity
  _atom_site_fract_x
  _atom_site_fract_y
  _atom_site_fract_z
  _atom_site_occupancy
  Pr  Pr1       1.0  0.06611244869418442  0.971161289839074  0.5734557886607945  1.0000
  Pr  Pr2       1.0  0.4147578692063689  0.4263123394921422  0.8486030524363741  1.0000
  P   P1        1.0  0.513070285320282  0.1564179603010416  0.23423010483384132  1.0000
  P   P2        1.0  0.4091838076710701  0.5994391795247793  0.8005521968007088  1.0000
  H   H1        1.0  0.6379891177639365  0.01035970775410533  0.6759550281567499  1.0000
  H   H2        1.0  0.4049792792648077  0.21004664071369916  0.4701159135438502  1.0000
  H   H3        1.0  0.32212394947418943  0.32586630526930094  0.7459839945659041  1.0000
  H   H4        1.0  0.21752133406698704  0.0999042778275907  0.10489018401131034  1.0000
  H   H5        1.0  0.1404198152013123  0.46532134420704097  0.16169356787577271  1.0000
  H   H6        1.0  0.3684797417372465  0.07303213654085994  0.5477475826628506  1.0000
  H   H7        1.0  0.951106246560812  0.30812901980243623  0.7195230717770755  1.0000
  H   H8        1.0  0.4186468804255128  0.862928828690201  0.8259208064991981  1.0000
  H   H9        1.0  0.004567058524116874  0.3000083137303591  0.2431759973987937  1.0000
  H   H10       1.0  0.6856299475766718  0.40141247340943664  0.08110189094441012  1.0000
  C   C1        1.0  0.9392103375867009  0.34841139940544963  0.7037337749497965  1.0000
  C   C2        1.0  0.22695160889998078  0.12116981751751155  0.28135469963308424  1.0000
  O   O1        1.0  0.5188130477908999  0.7583642320532817  0.935152651858516  1.0000
  O   O2        1.0  0.2361742133507505  0.12136151510640047  0.9225884998450056  1.0000
  O   O3        1.0  0.6556496374541894  0.14049962985154707  0.15420161104702856  1.0000
  O   O4        1.0  0.8825603546574712  0.30875408893916756  0.8838086972828023  1.0000
  O   O5        1.0  0.7315523567376658  0.855118672712706  0.2376520202960819  1.0000
  O   O6        1.0  0.15483663592021912  0.49024687497876585  0.836199956247583  1.0000
  O   O7        1.0  0.4217136669540196  0.05094862330588512  0.11608232551952824  1.0000
  O   O8        1.0  0.3536443712655455  0.45151434326544404  0.3161974628455937  1.0000
  O   O9        1.0  0.03863595868460834  0.013397779548540711  0.4922514380887151  1.0000
  O   O10       1.0  0.07819967507384717  0.6419459925964475  0.3503585780854337  1.0000
  O   O11       1.0  0.7731245435134042  0.3524137550557498  0.12032249226467684  1.0000
  O   O12       1.0  0.7310592315843678  0.8667696705670096  0.9446494984440506  1.0000
  O   O13       1.0  0.9351219737436622  0.015028858135337941  0.7438570639351383  1.0000
  O   O14       1.0  0.038697003154084086  0.08781175522017293  0.2924871416762471  1.0000
data_image39
_chemical_formula_structural       Pr2P2H10C2O14
_chemical_formula_sum              "Pr2 P2 H10 C2 O14"
_cell_length_a       6.761788999999999
_cell_length_b       7.146483751908908
_cell_length_c       7.843598011864962
_cell_angle_alpha    110.54253585495134
_cell_angle_beta     95.79501476046597
_cell_angle_gamma    89.49575901902455

_space_group_name_H-M_alt    "P 1"
_space_group_IT_number       1

loop_
  _space_group_symop_operation_xyz
  'x, y, z'

loop_
  _atom_site_type_symbol
  _atom_site_label
  _atom_site_symmetry_multiplicity
  _atom_site_fract_x
  _atom_site_fract_y
  _atom_site_fract_z
  _atom_site_occupancy
  Pr  Pr1       1.0  0.9763848828151822  0.3886584418360144  0.9930083379149437  1.0000
  Pr  Pr2       1.0  0.9849939849227667  0.053712342865765095  0.8844448502059095  1.0000
  P   P1        1.0  0.9147925265133381  0.814855607226491  0.8750786520540714  1.0000
  P   P2        1.0  0.30310844630002975  0.6103391274809837  0.22018951550126076  1.0000
  H   H1        1.0  0.3030570913106203  0.7605302687734365  0.12618632469093427  1.0000
  H   H2        1.0  0.2501282198354602  0.05632717104163021  0.2846498554572463  1.0000
  H   H3        1.0  0.5771674441057257  0.8262439197860658  0.8044589851051569  1.0000
  H   H4        1.0  0.635420948266983  0.2145914207212627  0.9343668492510915  1.0000
  H   H5        1.0  0.5177270749118179  0.2203038411680609  0.8296824629651383  1.0000
  H   H6        1.0  0.6829466442577541  0.5621179339941591  0.13853448280133307  1.0000
  H   H7        1.0  0.10040423925966024  0.6658698336686939  0.9387514651753008  1.0000
  H   H8        1.0  0.8817031080834568  0.8423221355769783  0.7251393902115524  1.0000
  H   H9        1.0  0.7640736578032374  0.6178491413593292  0.520752627402544  1.0000
  H   H10       1.0  0.5165010830387473  0.06892582797445357  0.0032800567569211125  1.0000
  C   C1        1.0  0.4669254464097321  0.9058627691119909  0.27823834703303874  1.0000
  C   C2        1.0  0.5006213746964931  0.6962267416529357  0.8815218390664086  1.0000
  O   O1        1.0  0.03380171622848138  0.9936787375190761  0.9416334937923239  1.0000
  O   O2        1.0  0.4250835635466501  0.7747552267974243  0.8315885995980352  1.0000
  O   O3        1.0  0.980512191192247  0.3643766064196825  0.5899116432992741  1.0000
  O   O4        1.0  0.5848104183096439  0.7465728225652128  0.5587366006802768  1.0000
  O   O5        1.0  0.2340864115394652  0.20228076016064733  0.16951457055984065  1.0000
  O   O6        1.0  0.42866001510992646  0.6755470111966133  0.2076186294434592  1.0000
  O   O7        1.0  0.26964183973905165  0.952228974972968  0.9316136050911155  1.0000
  O   O8        1.0  0.587294434197247  0.8857823636499234  0.422002065111883  1.0000
  O   O9        1.0  0.6778381024487317  0.30050046904943883  0.7083322822581977  1.0000
  O   O10       1.0  0.04686799296177924  0.9178710009437054  0.4077265491941944  1.0000
  O   O11       1.0  0.9398367882240564  0.28064973416621797  0.33066279377089813  1.0000
  O   O12       1.0  0.6942108656949131  0.522036915877834  0.023919379513245076  1.0000
  O   O13       1.0  0.9305412260582671  0.8802287560974946  0.31215368362609297  1.0000
  O   O14       1.0  0.6537305673118681  0.728172574104974  0.4028184723574668  1.0000
data_image40
_chemical_formula_structural       Pr2P2H10C2O14
_chemical_formula_sum              "Pr2 P2 H10 C2 O14"
_cell_length_a       6.761788999999999
_cell_length_b       7.146483751908908
_cell_length_c       7.843598011864962
_cell_angle_alpha    110.54253585495134
_cell_angle_beta     95.79501476046597
_cell_angle_gamma    89.49575901902455

_space_group_name_H-M_alt    "P 1"
_space_group_IT_number       1

loop_
  _space_group_symop_operation_xyz
  'x, y, z'

loop_
  _atom_site_type_symbol
  _atom_site_label
  _atom_site_symmetry_multiplicity
  _atom_site_fract_x
  _atom_site_fract_y
  _atom_site_fract_z
  _atom_site_occupancy
  Pr  Pr1       1.0  0.93115991121158  0.15679422300308943  0.7013616168405861  1.0000
  Pr  Pr2       1.0  0.6304662982001901  0.4496671836823225  0.8982997258426622  1.0000
  P   P1        1.0  0.921643640846014  0.4739627819508314  0.8497643340379  1.0000
  P   P2        1.0  0.6990603804588318  0.27480060793459415  0.3753405511379242  1.0000
  H   H1        1.0  0.35738515481352806  0.9250293588265777  0.4876996986567974  1.0000
  H   H2        1.0  0.16780464351177216  0.7923357716063038  0.33843492064625025  1.0000
  H   H3        1.0  0.8655203285161406  0.6886579473502934  0.03334452770650387  1.0000
  H   H4        1.0  0.22750420216470957  0.14012755500152707  0.1631900668144226  1.0000
  H   H5        1.0  0.062164139933884144  0.9599456619471312  0.8462025742046535  1.0000
  H   H6        1.0  0.1938957399688661  0.18124514212831855  0.7610403969883919  1.0000
  H   H7        1.0  0.7130180057138205  0.6289712714497  0.6337046138942242  1.0000
  H   H8        1.0  0.6264408500865102  0.14880836964584887  0.42513341433368623  1.0000
  H   H9        1.0  0.11497953347861767  0.705001961439848  0.8456742009148002  1.0000
  H   H10       1.0  0.8389991512522101  0.8370322905248031  0.2608708402258344  1.0000
  C   C1        1.0  0.3553112919908017  0.6958381813019514  0.11329961835872382  1.0000
  C   C2        1.0  0.36034384090453386  0.1921069611562416  0.5957533210748807  1.0000
  O   O1        1.0  0.06039112387225032  0.9070961045508739  0.32782875168777537  1.0000
  O   O2        1.0  0.32668194570578635  0.7186275760032004  0.7168167190393433  1.0000
  O   O3        1.0  0.5235276239109226  0.9647590439562919  0.16525908446055837  1.0000
  O   O4        1.0  0.35467204940505326  0.3458062887657434  0.1539110915036872  1.0000
  O   O5        1.0  0.12934502970892936  0.2316527523798868  0.3322541859233752  1.0000
  O   O6        1.0  0.7203158938791603  0.23710689065046608  0.08708105830010027  1.0000
  O   O7        1.0  0.6754733495181426  0.8131304197740974  0.10269913131196517  1.0000
  O   O8        1.0  0.650599539920222  0.3463723692111671  0.7223304735962301  1.0000
  O   O9        1.0  0.11629389738664031  0.0878807429689914  0.7438098330749199  1.0000
  O   O10       1.0  0.036969766952097416  0.8482341746566817  0.13596130127552897  1.0000
  O   O11       1.0  0.5111970483267214  0.43800391542026773  0.937972774321679  1.0000
  O   O12       1.0  0.2955493533081608  0.5634864101593848  0.6466962264676113  1.0000
  O   O13       1.0  0.0018620166229084134  0.6842784308537375  0.8558985978597775  1.0000
  O   O14       1.0  0.23744489206001163  0.17302247797488235  0.22563217882998288  1.0000
data_image41
_chemical_formula_structural       Pr2P2H10C2O14
_chemical_formula_sum              "Pr2 P2 H10 C2 O14"
_cell_length_a       6.761788999999999
_cell_length_b       7.146483751908908
_cell_length_c       7.843598011864962
_cell_angle_alpha    110.54253585495134
_cell_angle_beta     95.79501476046597
_cell_angle_gamma    89.49575901902455

_space_group_name_H-M_alt    "P 1"
_space_group_IT_number       1

loop_
  _space_group_symop_operation_xyz
  'x, y, z'

loop_
  _atom_site_type_symbol
  _atom_site_label
  _atom_site_symmetry_multiplicity
  _atom_site_fract_x
  _atom_site_fract_y
  _atom_site_fract_z
  _atom_site_occupancy
  Pr  Pr1       1.0  0.4795467017684132  0.11089931731112301  0.8833274932112545  1.0000
  Pr  Pr2       1.0  0.6529662758111954  0.8380521759390831  0.46725079565658234  1.0000
  P   P1        1.0  0.8376019038259983  0.7782965078949928  0.4353299681097269  1.0000
  P   P2        1.0  0.896668903529644  0.8382609989494085  0.8164316825568676  1.0000
  H   H1        1.0  0.5590001717209816  0.8860485092736781  0.5072785374941304  1.0000
  H   H2        1.0  0.16283483430743217  0.3982811407186091  0.5330940587446094  1.0000
  H   H3        1.0  0.7397503284737468  0.181311609223485  0.8938306039199233  1.0000
  H   H4        1.0  0.08789519499987364  0.25881239119917154  0.1193416933529079  1.0000
  H   H5        1.0  0.17366333468817174  0.07461715932004154  0.6428893723059446  1.0000
  H   H6        1.0  0.6892407368868589  0.6410803596954793  0.4191021505976096  1.0000
  H   H7        1.0  0.13797958055511117  0.9580631928984076  0.16348180314525962  1.0000
  H   H8        1.0  0.9030344090424478  0.3593065415043384  0.5889978064224124  1.0000
  H   H9        1.0  0.9502511504106224  0.39518981985747814  0.27953494247049093  1.0000
  H   H10       1.0  0.13267955067567527  0.38789112446829677  0.8665581097011454  1.0000
  C   C1        1.0  0.42046662606298923  0.4125190954655409  0.708642847253941  1.0000
  C   C2        1.0  0.7241492527537048  0.05772741150576621  0.19543643249198794  1.0000
  O   O1        1.0  0.8940234736655839  0.9762173225462902  0.6821230923815165  1.0000
  O   O2        1.0  0.2737603021087125  0.7311148501030402  0.31377397757023573  1.0000
  O   O3        1.0  0.6846600666176528  0.10294761284603737  0.035459324572002515  1.0000
  O   O4        1.0  0.6466907263966277  0.0035510039888322353  0.12136205309070647  1.0000
  O   O5        1.0  0.41988300648517907  0.5205838793190196  0.9393163009081036  1.0000
  O   O6        1.0  0.4153177881380543  0.6876688057091087  0.08914583770092577  1.0000
  O   O7        1.0  0.2310534598364029  0.471967266050342  0.5199191550782416  1.0000
  O   O8        1.0  0.7803651914582588  0.3144919839105569  0.6058262011501938  1.0000
  O   O9        1.0  0.7513245660811663  0.9932471585925668  0.8515197508968413  1.0000
  O   O10       1.0  0.8555023055523634  0.6481690705986694  0.5819857640890405  1.0000
  O   O11       1.0  0.6426120427495334  0.0017140228883363307  0.4876087460434064  1.0000
  O   O12       1.0  0.6857470060203923  0.21914906680467539  0.2824385200801771  1.0000
  O   O13       1.0  0.8089572093449533  0.4909851314005209  0.6835117762675509  1.0000
  O   O14       1.0  0.8107558819465339  0.25965385971358046  0.4654118665494025  1.0000
data_image42
_chemical_formula_structural       Pr2P2H10C2O14
_chemical_formula_sum              "Pr2 P2 H10 C2 O14"
_cell_length_a       6.761788999999999
_cell_length_b       7.146483751908908
_cell_length_c       7.843598011864962
_cell_angle_alpha    110.54253585495134
_cell_angle_beta     95.79501476046597
_cell_angle_gamma    89.49575901902455

_space_group_name_H-M_alt    "P 1"
_space_group_IT_number       1

loop_
  _space_group_symop_operation_xyz
  'x, y, z'

loop_
  _atom_site_type_symbol
  _atom_site_label
  _atom_site_symmetry_multiplicity
  _atom_site_fract_x
  _atom_site_fract_y
  _atom_site_fract_z
  _atom_site_occupancy
  Pr  Pr1       1.0  0.4270972744561732  0.39534283825196326  0.16271497844718397  1.0000
  Pr  Pr2       1.0  0.8842713497579098  0.634265691973269  0.3774898486735765  1.0000
  P   P1        1.0  0.8802178092300892  0.823582923039794  0.4290226809680462  1.0000
  P   P2        1.0  0.8326903134584427  0.8021505139768124  0.9570302069187164  1.0000
  H   H1        1.0  0.9327181573025882  0.586892225779593  0.01590630877763033  1.0000
  H   H2        1.0  0.23945784009993076  0.8841777516063303  0.28228055499494076  1.0000
  H   H3        1.0  0.9064878194476478  0.8423087270930409  0.9155236463993788  1.0000
  H   H4        1.0  0.7359119541943073  0.34235308691859245  0.07442226493731141  1.0000
  H   H5        1.0  0.3666514081414789  0.8975781839108095  0.8679390884935856  1.0000
  H   H6        1.0  0.09732482442632318  0.5324838489759713  0.030607653316110373  1.0000
  H   H7        1.0  0.643623499199748  0.23642077739350498  0.8918546787463129  1.0000
  H   H8        1.0  0.7402772442437708  0.6599251981824636  0.5529829110018909  1.0000
  H   H9        1.0  0.20821711770258844  0.8862545732408762  0.817633212544024  1.0000
  H   H10       1.0  0.3951416446361691  0.004742499440908432  0.10179011995205656  1.0000
  C   C1        1.0  0.18179593235254288  0.6551461280323565  0.7329983392846771  1.0000
  C   C2        1.0  0.11677181604318321  0.9806295055896044  0.8234561387216672  1.0000
  O   O1        1.0  0.8975645396858454  0.43620501935947686  0.3684196202593739  1.0000
  O   O2        1.0  0.047164542076643556  0.7583457038854249  0.7084056148305535  1.0000
  O   O3        1.0  0.29918091039871797  0.8320633151888615  0.08446723435190506  1.0000
  O   O4        1.0  0.9294908631127328  0.5384078776696697  0.06649428594391793  1.0000
  O   O5        1.0  0.6617711813887581  0.7300584149779752  0.6157123219454661  1.0000
  O   O6        1.0  0.9237820276757702  0.6001421227119863  0.6191041251877323  1.0000
  O   O7        1.0  0.8801326033080841  0.31830980366066797  0.7798327546333894  1.0000
  O   O8        1.0  0.57224400062114  0.348222054191865  0.8244135663262568  1.0000
  O   O9        1.0  0.04391210456378758  0.30694057373329997  0.8813003462273628  1.0000
  O   O10       1.0  0.2078742403537035  0.07224850682541728  0.9036069108988158  1.0000
  O   O11       1.0  0.2674070876382757  0.2156023389834445  0.8624414147343487  1.0000
  O   O12       1.0  0.06793580432713497  0.21683179095271043  0.9177353927516378  1.0000
  O   O13       1.0  0.9100851701805368  0.4580082385073183  0.9670024417573586  1.0000
  O   O14       1.0  0.6562288859859109  0.5740492723125499  0.6217997532803565  1.0000
data_image43
_chemical_formula_structural       Pr2P2H10C2O14
_chemical_formula_sum              "Pr2 P2 H10 C2 O14"
_cell_length_a       6.761788999999999
_cell_length_b       7.146483751908908
_cell_length_c       7.843598011864962
_cell_angle_alpha    110.54253585495134
_cell_angle_beta     95.79501476046597
_cell_angle_gamma    89.49575901902455

_space_group_name_H-M_alt    "P 1"
_space_group_IT_number       1

loop_
  _space_group_symop_operation_xyz
  'x, y, z'

loop_
  _atom_site_type_symbol
  _atom_site_label
  _atom_site_symmetry_multiplicity
  _atom_site_fract_x
  _atom_site_fract_y
  _atom_site_fract_z
  _atom_site_occupancy
  Pr  Pr1       1.0  0.014096522936597466  0.8001212344970554  0.7004493148997426  1.0000
  Pr  Pr2       1.0  0.9913470530882478  0.5566015020012856  0.2494970255647786  1.0000
  P   P1        1.0  0.11287564411759377  0.2699895575642586  0.738101888448  1.0000
  P   P2        1.0  0.43944769352674484  0.46991125494241714  0.7680216152220964  1.0000
  H   H1        1.0  0.34580351784825325  0.11262964829802513  0.5508998804725707  1.0000
  H   H2        1.0  0.4389398042112589  0.029304904048331082  0.7795240683481097  1.0000
  H   H3        1.0  0.01785990851931274  0.9730202183127403  0.9247666923329234  1.0000
  H   H4        1.0  0.9057470485568047  0.9690274996683002  0.4420314016751945  1.0000
  H   H5        1.0  0.4825071678496897  0.9696152245742269  0.42009083461016417  1.0000
  H   H6        1.0  0.35460175294429064  0.057520666159689426  0.0034028291702270508  1.0000
  H   H7        1.0  0.056510152760893106  0.15768930781632662  0.018050887621939182  1.0000
  H   H8        1.0  0.05130409263074398  0.7959655576851219  0.18746966100297868  1.0000
  H   H9        1.0  0.2234410538803786  0.2386388350278139  0.24282918497920036  1.0000
  H   H10       1.0  0.014407664421014488  0.5595822355244309  0.15658278041519225  1.0000
  C   C1        1.0  0.4097650109324604  0.05260561499744654  0.22020095126936212  1.0000
  C   C2        1.0  0.015589296584948897  0.36635140364523977  0.003063696203753352  1.0000
  O   O1        1.0  0.9393182609928772  0.016948570089880377  0.34847625914699165  1.0000
  O   O2        1.0  0.5913035738049075  0.35546480619814247  0.744884449057281  1.0000
  O   O3        1.0  0.964866230438929  0.6205730097426567  0.47882487454626244  1.0000
  O   O4        1.0  0.8378803631057963  0.806050178129226  0.9533777054748498  1.0000
  O   O5        1.0  0.02238782972563058  0.5217531549278647  0.6447447521495633  1.0000
  O   O6        1.0  0.015618923353031278  0.756194609683007  0.3150805125478655  1.0000
  O   O7        1.0  0.872176235160623  0.22348719947876816  0.21107811880938243  1.0000
  O   O8        1.0  0.3880743631743826  0.313915251637809  0.41583369142608717  1.0000
  O   O9        1.0  0.8659171243198216  0.3414774779230356  0.19176610023714602  1.0000
  O   O10       1.0  0.028577099204994738  0.5205371372867376  0.4151380404946394  1.0000
  O   O11       1.0  0.805558816267876  0.8489821433904581  0.2628336481866427  1.0000
  O   O12       1.0  0.7890799626929947  0.797265750967199  0.25084993126802146  1.0000
  O   O13       1.0  0.29104689764790237  0.5553556188533548  0.9720398794161156  1.0000
  O   O14       1.0  0.03172909305430949  0.8288394112605602  0.27582393679767847  1.0000
data_image44
_chemical_formula_structural       Pr2P2H10C2O14
_chemical_formula_sum              "Pr2 P2 H10 C2 O14"
_cell_length_a       6.761788999999999
_cell_length_b       7.146483751908908
_cell_length_c       7.843598011864962
_cell_angle_alpha    110.54253585495134
_cell_angle_beta     95.79501476046597
_cell_angle_gamma    89.49575901902455

_space_group_name_H-M_alt    "P 1"
_space_group_IT_number       1

loop_
  _space_group_symop_operation_xyz
  'x, y, z'

loop_
  _atom_site_type_symbol
  _atom_site_label
  _atom_site_symmetry_multiplicity
  _atom_site_fract_x
  _atom_site_fract_y
  _atom_site_fract_z
  _atom_site_occupancy
  Pr  Pr1       1.0  0.5908383156638592  0.9463220017496496  0.23009190056473017  1.0000
  Pr  Pr2       1.0  0.8604271318763494  0.9311301615089178  0.7260912000201643  1.0000
  P   P1        1.0  0.21652791276574135  0.21232512965798378  0.4130249973386526  1.0000
  P   P2        1.0  0.438853457570076  0.10225468128919601  0.8361904788762331  1.0000
  H   H1        1.0  0.92921221582219  0.3773404574021697  0.8612085645436309  1.0000
  H   H2        1.0  0.8966122707352042  0.6615847552893683  0.4468743954785168  1.0000
  H   H3        1.0  0.7678110018605366  0.6919062994420528  0.9651919063180685  1.0000
  H   H4        1.0  0.7251449897885323  0.7360912738367915  0.5964159416034818  1.0000
  H   H5        1.0  0.5610514148138463  0.06257193849887699  0.09970240574330091  1.0000
  H   H6        1.0  0.455190849956125  0.5205269551370293  0.6488864079583436  1.0000
  H   H7        1.0  0.5200353409163654  0.7091313078999519  0.6652669212780893  1.0000
  H   H8        1.0  0.4253926109522581  0.4163951955270022  0.40435287775471807  1.0000
  H   H9        1.0  0.46793567412532866  0.5810782872140408  0.7913674162700772  1.0000
  H   H10       1.0  0.42605324392206967  0.04134290083311498  0.2838120673550293  1.0000
  C   C1        1.0  0.5107366605661809  0.5562456459738314  0.8697945188032463  1.0000
  C   C2        1.0  0.09018501522950828  0.9692860902287066  0.5883901522029191  1.0000
  O   O1        1.0  0.7634766006958671  0.48695618953206576  0.029568863501481246  1.0000
  O   O2        1.0  0.33035881619434804  0.243013111219625  0.8886845379602164  1.0000
  O   O3        1.0  0.08681314036948606  0.7588846900616772  0.9978813157940749  1.0000
  O   O4        1.0  0.19176747172605246  0.1370043425122276  0.451886999362614  1.0000
  O   O5        1.0  0.95252769975923  0.4301386713050306  0.6606865376234055  1.0000
  O   O6        1.0  0.14860418159514666  0.3905276241712272  0.13960542739368975  1.0000
  O   O7        1.0  0.7293153104947123  0.8179171845822566  0.14561315620085225  1.0000
  O   O8        1.0  0.7590550865279511  0.2777792648412287  0.5627681856276467  1.0000
  O   O9        1.0  0.14458750304766  0.616359802428633  0.8391312790336087  1.0000
  O   O10       1.0  0.8524605345446616  0.10558384226169437  0.4774523251107894  1.0000
  O   O11       1.0  0.7049026591703296  0.9636260188126471  0.24322252615820616  1.0000
  O   O12       1.0  0.6613192276636255  0.14342554277391173  0.7216169970633928  1.0000
  O   O13       1.0  0.8327521580504254  0.19305254745995626  0.3522143503651023  1.0000
  O   O14       1.0  0.2949393708258867  0.5256160018034279  0.9521791331935674  1.0000
data_image45
_chemical_formula_structural       Pr2P2H10C2O14
_chemical_formula_sum              "Pr2 P2 H10 C2 O14"
_cell_length_a       6.761788999999999
_cell_length_b       7.146483751908908
_cell_length_c       7.843598011864962
_cell_angle_alpha    110.54253585495134
_cell_angle_beta     95.79501476046597
_cell_angle_gamma    89.49575901902455

_space_group_name_H-M_alt    "P 1"
_space_group_IT_number       1

loop_
  _space_group_symop_operation_xyz
  'x, y, z'

loop_
  _atom_site_type_symbol
  _atom_site_label
  _atom_site_symmetry_multiplicity
  _atom_site_fract_x
  _atom_site_fract_y
  _atom_site_fract_z
  _atom_site_occupancy
  Pr  Pr1       1.0  0.918768449453637  0.8333428353071213  0.41518568294122815  1.0000
  Pr  Pr2       1.0  0.4358246037736535  0.6539041614159942  0.5001587146834936  1.0000
  P   P1        1.0  0.7669501341879368  0.23864830285310745  0.08857861906290054  1.0000
  P   P2        1.0  0.2468406707048416  0.45465624146163464  0.6951747685670853  1.0000
  H   H1        1.0  0.023303304333239794  0.8252270510420203  0.9267862858250737  1.0000
  H   H2        1.0  0.5911324350163341  0.9305514339357615  0.02218054933473468  1.0000
  H   H3        1.0  0.658794401679188  0.4682444832287729  0.17135427799075842  1.0000
  H   H4        1.0  0.3627473870292306  0.38947837613523006  0.44050911255180836  1.0000
  H   H5        1.0  0.005845681298524141  0.6051805524039082  0.09254555962979794  1.0000
  H   H6        1.0  0.1075154272839427  0.9644589389208704  0.5168318328214809  1.0000
  H   H7        1.0  0.481612634845078  0.44044672744348645  0.991280575748533  1.0000
  H   H8        1.0  0.0664049438200891  0.5404822889249772  0.004825318232178688  1.0000
  H   H9        1.0  0.2504250064957887  0.8453709483146667  0.49717702623456717  1.0000
  H   H10       1.0  0.11153688177000731  0.6479715367313474  0.31274169037351385  1.0000
  C   C1        1.0  0.06825237954035401  0.09853237913921475  0.7622080544242635  1.0000
  C   C2        1.0  0.09604846988804638  0.5424166944576427  0.6084214425645769  1.0000
  O   O1        1.0  0.4453789403196424  0.11697496904525906  0.3963730378090986  1.0000
  O   O2        1.0  0.04166388721205294  0.15491022933565546  0.01830421353224665  1.0000
  O   O3        1.0  0.03014011267805472  0.3241624596703332  0.12161004355948535  1.0000
  O   O4        1.0  0.31013880588579923  0.7886599550256506  0.9342954856692813  1.0000
  O   O5        1.0  0.2748217578046024  0.8667932319222018  0.9119983996497467  1.0000
  O   O6        1.0  0.9441332225687802  0.3640738904941827  0.8451284363400191  1.0000
  O   O7        1.0  0.6750969841814367  0.5656893568375381  0.40328488098748494  1.0000
  O   O8        1.0  0.19741326326038688  0.7748346151784062  0.04763917200034484  1.0000
  O   O9        1.0  0.4296660532709211  0.5242443776223809  0.5986933266976848  1.0000
  O   O10       1.0  0.4074980588629842  0.47353707009460777  0.3818374451366253  1.0000
  O   O11       1.0  0.8193981348886155  0.11705416842596605  0.838335472624749  1.0000
  O   O12       1.0  0.5224514104120317  0.9449387755594216  0.1553409870248288  1.0000
  O   O13       1.0  0.03973224537912756  0.5707194079004694  0.5900940742576495  1.0000
  O   O14       1.0  0.6009913382586092  0.832985228364123  0.7374847785104066  1.0000
data_image46
_chemical_formula_structural       Pr2P2H10C2O14
_chemical_formula_sum              "Pr2 P2 H10 C2 O14"
_cell_length_a       6.761788999999999
_cell_length_b       7.146483751908908
_cell_length_c       7.843598011864962
_cell_angle_alpha    110.54253585495134
_cell_angle_beta     95.79501476046597
_cell_angle_gamma    89.49575901902455

_space_group_name_H-M_alt    "P 1"
_space_group_IT_number       1

loop_
  _space_group_symop_operation_xyz
  'x, y, z'

loop_
  _atom_site_type_symbol
  _atom_site_label
  _atom_site_symmetry_multiplicity
  _atom_site_fract_x
  _atom_site_fract_y
  _atom_site_fract_z
  _atom_site_occupancy
  Pr  Pr1       1.0  0.7358226876240224  0.02583410544320941  0.6653232544194907  1.0000
  Pr  Pr2       1.0  0.8426543064415455  0.808717149309814  0.1360447722254321  1.0000
  P   P1        1.0  0.3826989270746708  0.5599559135735035  0.005522528663277626  1.0000
  P   P2        1.0  0.9064242616295815  0.7843663990497589  0.9838311243802309  1.0000
  H   H1        1.0  0.8621880579739809  0.2646525055170059  0.3467094544903375  1.0000
  H   H2        1.0  0.06913546100258827  0.17998033459298313  0.05663183284923434  1.0000
  H   H3        1.0  0.029097977560013533  0.10294796759262681  0.4399786740541458  1.0000
  H   H4        1.0  0.5686131184920669  0.13797652116045356  0.3241899386048317  1.0000
  H   H5        1.0  0.8321128869429231  0.6956378466566093  0.9224304463714361  1.0000
  H   H6        1.0  0.09726076480001211  0.5602260150481015  0.26262547075748444  1.0000
  H   H7        1.0  0.5723286923021078  0.6386979625094682  0.9985322807915509  1.0000
  H   H8        1.0  0.1794034638442099  0.051581876119598746  0.8947737712878734  1.0000
  H   H9        1.0  0.24760453938506544  0.37247007712721825  0.7164614209905267  1.0000
  H   H10       1.0  0.8445519194938242  0.097215291345492  0.18519538757391274  1.0000
  C   C1        1.0  0.6154855703935027  0.33418306428939104  0.7169718131190166  1.0000
  C   C2        1.0  0.8299383467528969  0.23659392131958157  0.46206507296301425  1.0000
  O   O1        1.0  0.4509720845380798  0.5122879777336493  0.9683067120131454  1.0000
  O   O2        1.0  0.4678710849257186  0.4664504601387307  0.5635066924151033  1.0000
  O   O3        1.0  0.8045884285820648  0.741221119009424  0.46187392879392064  1.0000
  O   O4        1.0  0.36558593914378434  0.9100285092135891  0.6168607397703454  1.0000
  O   O5        1.0  0.2813577896449715  0.5220028177136555  0.023905885056592524  1.0000
  O   O6        1.0  0.7692609359510243  0.653112628730014  0.41292424366110936  1.0000
  O   O7        1.0  0.774840578182193  0.7237823222239967  0.757878698532295  1.0000
  O   O8        1.0  0.04179434454999864  0.8188254014821723  0.43328296911204234  1.0000
  O   O9        1.0  0.15296745323576033  0.9696488548070192  0.0018326895078644156  1.0000
  O   O10       1.0  0.024763763649389148  0.6842880242038518  0.19232001772616059  1.0000
  O   O11       1.0  0.17835140015813522  0.4111123110342305  0.9015757125453092  1.0000
  O   O12       1.0  0.05161278423474869  0.06436807749560103  0.5961648574302671  1.0000
  O   O13       1.0  0.07319577701855451  0.6912679550005123  0.9229475374449976  1.0000
  O   O14       1.0  0.3815795115660876  0.685848695342429  0.0111606374848634  1.0000
data_image47
_chemical_formula_structural       Pr2P2H10C2O14
_chemical_formula_sum              "Pr2 P2 H10 C2 O14"
_cell_length_a       6.761788999999999
_cell_length_b       7.146483751908908
_cell_length_c       7.843598011864962
_cell_angle_alpha    110.54253585495134
_cell_angle_beta     95.79501476046597
_cell_angle_gamma    89.49575901902455

_space_group_name_H-M_alt    "P 1"
_space_group_IT_number       1

loop_
  _space_group_symop_operation_xyz
  'x, y, z'

loop_
  _atom_site_type_symbol
  _atom_site_label
  _atom_site_symmetry_multiplicity
  _atom_site_fract_x
  _atom_site_fract_y
  _atom_site_fract_z
  _atom_site_occupancy
  Pr  Pr1       1.0  0.037273789988830686  0.6203184856567532  0.6886283198837191  1.0000
  Pr  Pr2       1.0  0.19779222272336483  0.8132674228399992  0.40043071474065073  1.0000
  P   P1        1.0  0.3186950944364071  0.19398195296525955  0.06517992541193962  1.0000
  P   P2        1.0  0.48429713398218155  0.08714697137475014  0.8672899659723043  1.0000
  H   H1        1.0  0.5760533581487834  0.8658886393532157  0.5752136827795766  1.0000
  H   H2        1.0  0.9683133009821177  0.7358596032718197  0.0891664931550622  1.0000
  H   H3        1.0  0.903610274544917  0.636541057843715  0.3551639090292156  1.0000
  H   H4        1.0  0.4829499237239361  0.3025446250103414  0.41304424637928605  1.0000
  H   H5        1.0  0.09922543354332447  0.6977930411230773  0.09777847165241838  1.0000
  H   H6        1.0  0.8958178097382188  0.4579672999680042  0.973313435097225  1.0000
  H   H7        1.0  0.5266029755584896  0.09615310467779636  0.5417954744771123  1.0000
  H   H8        1.0  0.39933214243501425  0.7810905452352017  0.7475406490266323  1.0000
  H   H9        1.0  0.2766614716965705  0.37466108053922653  0.9552861778065562  1.0000
  H   H10       1.0  0.6587751406477764  0.2266422847751528  0.610917424724903  1.0000
  C   C1        1.0  0.7013473880942911  0.2585303667001426  0.355101220367942  1.0000
  C   C2        1.0  0.9265872773248702  0.4856387672480196  0.4358768523670733  1.0000
  O   O1        1.0  0.31560842448379844  0.794592948659556  0.386987883837719  1.0000
  O   O2        1.0  0.036118820891715586  0.4618533844477497  0.06365118536632508  1.0000
  O   O3        1.0  0.15964035398792475  0.9487514327338431  0.25270717922830954  1.0000
  O   O4        1.0  0.4872052686987445  0.9156348892720416  0.8242195907514542  1.0000
  O   O5        1.0  0.7406347058713436  0.11171330022625625  0.49989049904979765  1.0000
  O   O6        1.0  0.7864769601728767  0.7349694219883531  0.49246703152311966  1.0000
  O   O7        1.0  0.2812007665634155  0.382593659342092  0.48220199788192986  1.0000
  O   O8        1.0  0.9564146950724535  0.42465330043341964  0.17411242937669158  1.0000
  O   O9        1.0  0.13172817998565733  0.6182319785002619  0.3970192491542548  1.0000
  O   O10       1.0  0.8411761703900993  0.6514314942760393  0.07790412078611553  1.0000
  O   O11       1.0  0.643557213654276  0.33148244793119375  0.8730659468565136  1.0000
  O   O12       1.0  0.8334512674991856  0.5979325607477222  0.43825097076478414  1.0000
  O   O13       1.0  0.6217205337015912  0.8326169645006303  0.8932266609044746  1.0000
  O   O14       1.0  0.817722134757787  0.351295684435172  0.6365956633817405  1.0000
data_image48
_chemical_formula_structural       Pr2P2H10C2O14
_chemical_formula_sum              "Pr2 P2 H10 C2 O14"
_cell_length_a       6.761788999999999
_cell_length_b       7.146483751908908
_cell_length_c       7.843598011864962
_cell_angle_alpha    110.54253585495134
_cell_angle_beta     95.79501476046597
_cell_angle_gamma    89.49575901902455

_space_group_name_H-M_alt    "P 1"
_space_group_IT_number       1

loop_
  _space_group_symop_operation_xyz
  'x, y, z'

loop_
  _atom_site_type_symbol
  _atom_site_label
  _atom_site_symmetry_multiplicity
  _atom_site_fract_x
  _atom_site_fract_y
  _atom_site_fract_z
  _atom_site_occupancy
  Pr  Pr1       1.0  0.9606574189383537  0.5670262770727277  0.8773620540741831  1.0000
  Pr  Pr2       1.0  0.26136370562016964  0.14922970533370972  0.8714466641249601  1.0000
  P   P1        1.0  0.2608642354607582  0.040568359196186066  0.2889702897518873  1.0000
  P   P2        1.0  0.7719542607665062  0.26802215911448  0.19291803427040577  1.0000
  H   H1        1.0  0.4789730510674417  0.6837087543681264  0.5177665509982035  1.0000
  H   H2        1.0  0.5465949820354581  0.6094490030081943  0.03674423461779952  1.0000
  H   H3        1.0  0.5759936068207026  0.3542230036109686  0.0778399370610714  1.0000
  H   H4        1.0  0.6410628547891974  0.6730697052553296  0.7308861222118139  1.0000
  H   H5        1.0  0.5665912264958024  0.7103823722281959  0.20832701306790113  1.0000
  H   H6        1.0  0.2504687295295298  0.20252788299694657  0.7416236756835133  1.0000
  H   H7        1.0  0.03795996680855751  0.27601851313374937  0.4171380093321204  1.0000
  H   H8        1.0  0.05214396771043539  0.5734934096690267  0.7809400481637567  1.0000
  H   H9        1.0  0.590685713570565  0.5445907395333052  0.35963615495711565  1.0000
  H   H10       1.0  0.26199785829521716  0.8657047180458903  0.5696201207465492  1.0000
  C   C1        1.0  0.5901293600909412  0.38635533675551414  0.5090545022394508  1.0000
  C   C2        1.0  0.8211805380415171  0.05689387460006401  0.4404176388634369  1.0000
  O   O1        1.0  0.019791157566942275  0.12386733607854694  0.28814056007831823  1.0000
  O   O2        1.0  0.059256394975818694  0.15051963669247925  0.5923056895844638  1.0000
  O   O3        1.0  0.2559334369725548  0.5125137123686727  0.9364220943134569  1.0000
  O   O4        1.0  0.15559116390068084  0.27903906372375786  0.39996990840882063  1.0000
  O   O5        1.0  0.7814798089675605  0.25671763496939093  0.09091266384348273  1.0000
  O   O6        1.0  0.45689476444385946  0.5580923708621413  0.2043725877883844  1.0000
  O   O7        1.0  0.4363885741040576  0.5725569802816608  0.66366531606036  1.0000
  O   O8        1.0  0.25927009544102475  0.38313499715877697  0.18719357112422585  1.0000
  O   O9        1.0  0.7515459915157408  0.5463238323573023  0.672685218625702  1.0000
  O   O10       1.0  0.4127445879857987  0.9913296076701954  0.5261607227148488  1.0000
  O   O11       1.0  0.2518528319778852  0.24625506871961989  0.8044459405355155  1.0000
  O   O12       1.0  0.10884769157564733  0.6052396141749341  0.5612140208249912  1.0000
  O   O13       1.0  0.564550101174973  0.9164510387636255  0.8946046066121198  1.0000
  O   O14       1.0  0.4645717004314065  0.6431618433562107  0.626160568324849  1.0000
data_image49
_chemical_formula_structural       Pr2P2H10C2O14
_chemical_formula_sum              "Pr2 P2 H10 C2 O14"
_cell_length_a       6.761788999999999
_cell_length_b       7.146483751908908
_cell_length_c       7.843598011864962
_cell_angle_alpha    110.54253585495134
_cell_angle_beta     95.79501476046597
_cell_angle_gamma    89.49575901902455

_space_group_name_H-M_alt    "P 1"
_space_group_IT_number       1

loop_
  _space_group_symop_operation_xyz
  'x, y, z'

loop_
  _atom_site_type_symbol
  _atom_site_label
  _atom_site_symmetry_multiplicity
  _atom_site_fract_x
  _atom_site_fract_y
  _atom_site_fract_z
  _atom_site_occupancy
  Pr  Pr1       1.0  0.6137493751011789  0.9970698638353497  0.061825672863051295  1.0000
  Pr  Pr2       1.0  0.10085099283605814  0.7760754395276308  0.2074517976725474  1.0000
  P   P1        1.0  0.9354674890637398  0.9661687072366476  0.6413343735039234  1.0000
  P   P2        1.0  0.440377876162529  0.8815223276615143  0.8643630556762218  1.0000
  H   H1        1.0  0.16673411522060633  0.05368529725819826  0.21928446926176548  1.0000
  H   H2        1.0  0.9292873851954937  0.46841490361839533  0.5942641056608409  1.0000
  H   H3        1.0  0.5990305844461545  0.4560187654569745  0.06481580529361963  1.0000
  H   H4        1.0  0.9807677902281284  0.2247415715828538  0.6389847905375063  1.0000
  H   H5        1.0  0.15381750324741006  0.5014660040615126  0.5862498157657683  1.0000
  H   H6        1.0  0.541720409411937  0.20991220651194453  0.775393899763003  1.0000
  H   H7        1.0  0.28236500825732946  0.07501280726864934  0.8890841123647988  1.0000
  H   H8        1.0  0.8620926945004612  0.034600742161273956  0.4332441745791584  1.0000
  H   H9        1.0  0.4160974412225187  0.6330155041068792  0.027252732776105404  1.0000
  H   H10       1.0  0.5417034405982122  0.035529496148228645  0.7314939666539431  1.0000
  C   C1        1.0  0.8026435915380716  0.664544575382024  0.6408315693843178  1.0000
  C   C2        1.0  0.5251748622395098  0.40094842185499147  0.5751634818734601  1.0000
  O   O1        1.0  0.697955185722094  0.8304849637206644  0.3115334456488199  1.0000
  O   O2        1.0  0.2969795647659339  0.3358053060946986  0.9955943266395479  1.0000
  O   O3        1.0  0.7239180572796613  0.9032385083846748  0.404737908498646  1.0000
  O   O4        1.0  0.2865099589107558  0.6299956132424995  0.8719014132511802  1.0000
  O   O5        1.0  0.7791767825838178  0.5539425214519724  0.942020523478277  1.0000
  O   O6        1.0  0.4327463114168495  0.30438858224079013  0.4738259852747433  1.0000
  O   O7        1.0  0.9236062479649263  0.10805044144944986  0.10438579104084056  1.0000
  O   O8        1.0  0.2948131434386596  0.5393681039568037  0.03673319821245968  1.0000
  O   O9        1.0  0.047192785888910294  0.7504546779673547  0.8541413840139285  1.0000
  O   O10       1.0  0.5015779501991346  0.34888645994942635  0.34667666268069297  1.0000
  O   O11       1.0  0.9873018633807078  0.06586360666551627  0.7502763403463177  1.0000
  O   O12       1.0  0.6418487825139891  0.21868013875791803  0.10198040227987804  1.0000
  O   O13       1.0  0.3338607895420864  0.322507855395088  0.48600474413251504  1.0000
  O   O14       1.0  0.16034973901696503  0.8008282295777462  0.7842485446017236  1.0000
data_image50
_chemical_formula_structural       Pr2P2H10C2O14
_chemical_formula_sum              "Pr2 P2 H10 C2 O14"
_cell_length_a       6.761788999999999
_cell_length_b       7.146483751908908
_cell_length_c       7.843598011864962
_cell_angle_alpha    110.54253585495134
_cell_angle_beta     95.79501476046597
_cell_angle_gamma    89.49575901902455

_space_group_name_H-M_alt    "P 1"
_space_group_IT_number       1

loop_
  _space_group_symop_operation_xyz
  'x, y, z'

loop_
  _atom_site_type_symbol
  _atom_site_label
  _atom_site_symmetry_multiplicity
  _atom_site_fract_x
  _atom_site_fract_y
  _atom_site_fract_z
  _atom_site_occupancy
  Pr  Pr1       1.0  0.8854317693039775  0.5261693210341036  0.24928702251054347  1.0000
  Pr  Pr2       1.0  0.6201071199029684  0.7607673574239016  0.66082396695856  1.0000
  P   P1        1.0  0.7195344306528568  0.7353293709456921  0.625140693038702  1.0000
  P   P2        1.0  0.039342090487480164  0.8459288999438286  0.5092635657638311  1.0000
  H   H1        1.0  0.06782556872349232  0.19602614198811352  0.5140073429793119  1.0000
  H   H2        1.0  0.18248725775629282  0.14549603266641498  0.650684384861961  1.0000
  H   H3        1.0  0.8080616859951988  0.8647214956581593  0.7925103101879358  1.0000
  H   H4        1.0  0.6019118614494801  0.26035236241295934  0.2845841571688652  1.0000
  H   H5        1.0  0.708104198332876  0.7613306362763979  0.27772619342431426  1.0000
  H   H6        1.0  0.3232035059481859  0.10845061810687184  0.7116076988168061  1.0000
  H   H7        1.0  0.5987311589997262  0.19157326687127352  0.5163525524549186  1.0000
  H   H8        1.0  0.4974482369143516  0.5912122097797692  0.5851957439444959  1.0000
  H   H9        1.0  0.34040236519649625  0.10634862817823887  0.43757382687181234  1.0000
  H   H10       1.0  0.5875339291524142  0.5257354285567999  0.8900930378586054  1.0000
  C   C1        1.0  0.7741507249884307  0.5605846019461751  0.14775498595554382  1.0000
  C   C2        1.0  0.32180802803486586  0.5897650956176221  0.2699486710189376  1.0000
  O   O1        1.0  0.7190961317974143  0.9142915614647791  0.4842280391840177  1.0000
  O   O2        1.0  0.5836172985145822  0.013935161900008097  0.044228019658476114  1.0000
  O   O3        1.0  0.2154471332905814  0.8264748505316675  0.38195213996368693  1.0000
  O   O4        1.0  0.13414395600557327  0.29873759928159416  0.23528531088959426  1.0000
  O   O5        1.0  0.3506580733228475  0.6444283429300413  0.47035823215264827  1.0000
  O   O6        1.0  0.3012760658748448  0.38657061266712844  0.04200659191701561  1.0000
  O   O7        1.0  0.565380166282921  0.5551520776643883  0.7640045862281113  1.0000
  O   O8        1.0  0.7463461821898818  0.9635392611380666  0.989882318826858  1.0000
  O   O9        1.0  0.9311640292871743  0.5185926619451493  0.48119646857958287  1.0000
  O   O10       1.0  0.6177769650239497  0.3613932727603242  0.3063311217701994  1.0000
  O   O11       1.0  0.7716550907935016  0.8774509669165127  0.30293939070543274  1.0000
  O   O12       1.0  0.047477224754402414  0.3520680291694589  0.7082783658115659  1.0000
  O   O13       1.0  0.08507838938385248  0.546592630300438  0.2150585411582142  1.0000
  O   O14       1.0  0.6897628083825111  0.43418394748005085  0.29384273989126086  1.0000
data_image51
_chemical_formula_structural       Pr2P2H10C2O14
_chemical_formula_sum              "Pr2 P2 H10 C2 O14"
_cell_length_a       6.761788999999999
_cell_length_b       7.146483751908908
_cell_length_c       7.843598011864962
_cell_angle_alpha    110.54253585495134
_cell_angle_beta     95.79501476046597
_cell_angle_gamma    89.49575901902455

_space_group_name_H-M_alt    "P 1"
_space_group_IT_number       1

loop_
  _space_group_symop_operation_xyz
  'x, y, z'

loop_
  _atom_site_type_symbol
  _atom_site_label
  _atom_site_symmetry_multiplicity
  _atom_site_fract_x
  _atom_site_fract_y
  _atom_site_fract_z
  _atom_site_occupancy
  Pr  Pr1       1.0  0.738820583326742  0.9051914194133133  0.9120315355248749  1.0000
  Pr  Pr2       1.0  0.4552674861624837  0.2740859482437372  0.6979019959690049  1.0000
  P   P1        1.0  0.5197781212627888  0.10304801538586617  0.8887731935828924  1.0000
  P   P2        1.0  0.6770610138773918  0.9294235035777092  0.2737844977527857  1.0000
  H   H1        1.0  0.9540661564096808  0.4267280134372413  0.15904045663774014  1.0000
  H   H2        1.0  0.07082563731819391  0.8503636723617092  0.3338681673631072  1.0000
  H   H3        1.0  0.3667652135482058  0.5023310673423111  0.8715426027774811  1.0000
  H   H4        1.0  0.6933215986937284  0.6559335016645491  0.7342763599008322  1.0000
  H   H5        1.0  0.8039774280041456  0.8670267046545632  0.004661980085074902  1.0000
  H   H6        1.0  0.9067759965546429  0.8407283765263855  0.7055438441457227  1.0000
  H   H7        1.0  0.8012439903104678  0.6377466446720064  0.9153361618518829  1.0000
  H   H8        1.0  0.27434436697512865  0.0043294490315020084  0.8683220488019288  1.0000
  H   H9        1.0  0.562584622297436  0.17054009810090065  0.3892705338075757  1.0000
  H   H10       1.0  0.8379368865862489  0.9208398312330246  0.9231662154197693  1.0000
  C   C1        1.0  0.3042352411430329  0.6085896519944072  0.9664383107447065  1.0000
  C   C2        1.0  0.5168484072200954  0.380084992852062  0.5283399209874915  1.0000
  O   O1        1.0  0.6869674872141331  0.8416989314719103  0.7278773560974514  1.0000
  O   O2        1.0  0.7563780592754483  0.6637157132354332  0.6827296741539612  1.0000
  O   O3        1.0  0.8689359191339463  0.633737477241084  0.777036262985348  1.0000
  O   O4        1.0  0.7451073647243902  0.15978091582655907  0.5380212751333602  1.0000
  O   O5        1.0  0.23587209219112992  0.10487010946962982  0.19177222158759832  1.0000
  O   O6        1.0  0.10053278901614249  0.5964979291893542  0.09618184267310426  1.0000
  O   O7        1.0  0.06110093156530638  0.7130011492481572  0.35726550053368555  1.0000
  O   O8        1.0  0.9252001455170102  0.5635700119310059  0.6959655610262416  1.0000
  O   O9        1.0  0.5095436952542514  0.35632589529268444  0.5115573755465448  1.0000
  O   O10       1.0  0.3666632182430476  0.015542831621132791  0.9549857969395816  1.0000
  O   O11       1.0  0.6302387309260666  0.09201962238876149  0.9819660551147535  1.0000
  O   O12       1.0  0.8455922389694024  0.9904235688736662  0.1279708729707636  1.0000
  O   O13       1.0  0.6105246238876134  0.859408632357372  0.43949057470308617  1.0000
  O   O14       1.0  0.6278790696524084  0.9759888007538393  0.03768172860145569  1.0000
data_image52
_chemical_formula_structural       Pr2P2H10C2O14
_chemical_formula_sum              "Pr2 P2 H10 C2 O14"
_cell_length_a       6.761788999999999
_cell_length_b       7.146483751908908
_cell_length_c       7.843598011864962
_cell_angle_alpha    110.54253585495134
_cell_angle_beta     95.79501476046597
_cell_angle_gamma    89.49575901902455

_space_group_name_H-M_alt    "P 1"
_space_group_IT_number       1

loop_
  _space_group_symop_operation_xyz
  'x, y, z'

loop_
  _atom_site_type_symbol
  _atom_site_label
  _atom_site_symmetry_multiplicity
  _atom_site_fract_x
  _atom_site_fract_y
  _atom_site_fract_z
  _atom_site_occupancy
  Pr  Pr1       1.0  0.6342209321446717  0.07689671427942812  0.9821788910776377  1.0000
  Pr  Pr2       1.0  0.24708279222249985  0.6890745498239994  0.9609848923282698  1.0000
  P   P1        1.0  0.13178626075387  0.9356631226837635  0.31935335509479046  1.0000
  P   P2        1.0  0.8560074120759964  0.0310787633061409  0.5278893858194351  1.0000
  H   H1        1.0  0.11050157062709332  0.43194863572716713  0.7475858768448234  1.0000
  H   H2        1.0  0.20737619139254093  0.10079827648587525  0.0506425800267607  1.0000
  H   H3        1.0  0.01678823831025511  0.9384165853261948  0.10111634572967887  1.0000
  H   H4        1.0  0.6816776162013412  0.018530986737459898  0.8186975398566574  1.0000
  H   H5        1.0  0.70912693021819  0.6206175135448575  0.38106291741132736  1.0000
  H   H6        1.0  0.24926308263093233  0.005841108039021492  0.06529454846167937  1.0000
  H   H7        1.0  0.13714198174420744  0.5756062851287425  0.8850314519368112  1.0000
  H   H8        1.0  0.9568603406660259  0.493789526168257  0.061593342339619994  1.0000
  H   H9        1.0  0.33506238681729883  0.7815510965883732  0.38988584466278553  1.0000
  H   H10       1.0  0.5203191649634391  0.36578551679849625  0.26592456735670567  1.0000
  C   C1        1.0  0.07840632181614637  0.16423566825687885  0.37603634549304843  1.0000
  C   C2        1.0  0.7977282868232578  0.15269680693745613  0.4931469467119314  1.0000
  O   O1        1.0  0.7849575476138853  0.7404253442073241  0.9451750992811867  1.0000
  O   O2        1.0  0.08537332451669499  0.6862024454167113  0.020952513092197478  1.0000
  O   O3        1.0  0.9830987813184038  0.25591025888570584  0.9643775515432935  1.0000
  O   O4        1.0  0.5248559241881594  0.5052069954108447  0.4361205174936913  1.0000
  O   O5        1.0  0.8920667081256397  0.3499221244128421  0.8404481147881597  1.0000
  O   O6        1.0  0.8427628420758992  0.676365440711379  0.6201174862217158  1.0000
  O   O7        1.0  0.18437611358240247  0.3852092506713234  0.2295362611694145  1.0000
  O   O8        1.0  0.2777993604540825  0.21006821241462603  0.39894752501277253  1.0000
  O   O9        1.0  0.007423321017995477  0.8573852337431163  0.190576214925386  1.0000
  O   O10       1.0  0.09721110109239817  0.6798426639288664  0.5537962698726915  1.0000
  O   O11       1.0  0.1990386603283696  0.9409498671011534  0.4863070748397149  1.0000
  O   O12       1.0  0.7944166667584796  0.8742442286747973  0.895598785369657  1.0000
  O   O13       1.0  0.4159360524499789  0.4642188004218042  0.7004011541139334  1.0000
  O   O14       1.0  0.10786278126761317  0.14613013339112513  0.4282846872229129  1.0000
data_image53
_chemical_formula_structural       Pr2P2H10C2O14
_chemical_formula_sum              "Pr2 P2 H10 C2 O14"
_cell_length_a       6.761788999999999
_cell_length_b       7.146483751908908
_cell_length_c       7.843598011864962
_cell_angle_alpha    110.54253585495134
_cell_angle_beta     95.79501476046597
_cell_angle_gamma    89.49575901902455

_space_group_name_H-M_alt    "P 1"
_space_group_IT_number       1

loop_
  _space_group_symop_operation_xyz
  'x, y, z'

loop_
  _atom_site_type_symbol
  _atom_site_label
  _atom_site_symmetry_multiplicity
  _atom_site_fract_x
  _atom_site_fract_y
  _atom_site_fract_z
  _atom_site_occupancy
  Pr  Pr1       1.0  0.9028762844391167  0.44347925554029644  0.26882944628596306  1.0000
  Pr  Pr2       1.0  0.8551887972280383  0.8934630509465933  0.5876458537532017  1.0000
  P   P1        1.0  0.9372658580541611  0.2880602329969406  0.6581076867878437  1.0000
  P   P2        1.0  0.18084827065467834  0.60269795358181  0.5350363869220018  1.0000
  H   H1        1.0  0.9021788686513901  0.2593286354094744  0.7893518339842558  1.0000
  H   H2        1.0  0.5982104549184442  0.5090207831235602  0.6794311972334981  1.0000
  H   H3        1.0  0.004497700836509466  0.38816364808008075  0.34894043300300837  1.0000
  H   H4        1.0  0.4695550547912717  0.8960408568382263  0.5718796246219426  1.0000
  H   H5        1.0  0.2977081020362675  0.3393767753150314  0.6475739660672843  1.0000
  H   H6        1.0  0.70136061264202  0.006102957762777805  0.6797794890590012  1.0000
  H   H7        1.0  0.42378868721425533  0.7372889423277229  0.12399285286664963  1.0000
  H   H8        1.0  0.8359242232982069  0.17827055510133505  0.23079967149533331  1.0000
  H   H9        1.0  0.7720414319774136  0.12051324732601643  0.20674406923353672  1.0000
  H   H10       1.0  0.2113598412834108  0.9379864111542702  0.3598874993622303  1.0000
  C   C1        1.0  0.7332518298644572  0.7915606833994389  0.6476135739358142  1.0000
  C   C2        1.0  0.49028899683617055  0.6478661488508806  0.5611995746439788  1.0000
  O   O1        1.0  0.2771491572493687  0.5161107268650085  0.5948983989401313  1.0000
  O   O2        1.0  0.5969103054376319  0.037302958633517846  0.3782232357189059  1.0000
  O   O3        1.0  0.3440569200902246  0.2810140270739794  0.8640723434527899  1.0000
  O   O4        1.0  0.9440656908554956  0.7202307663392276  0.7663965008105151  1.0000
  O   O5        1.0  0.42255076399305835  0.3279930016724393  0.7010464977938682  1.0000
  O   O6        1.0  0.679657018976286  0.9822695846669376  0.7312397590721957  1.0000
  O   O7        1.0  0.2610556717554573  0.5990753031655913  0.5275540792863467  1.0000
  O   O8        1.0  0.028601940080989152  0.28422870830399916  0.11592549097258598  1.0000
  O   O9        1.0  0.9236812617164105  0.7732230871915817  0.18970608129166067  1.0000
  O   O10       1.0  0.9390806637238711  0.8547413361957297  0.5906376653001644  1.0000
  O   O11       1.0  0.07862985038082115  0.1845393516414333  0.21038559882435948  1.0000
  O   O12       1.0  0.33922034672286827  0.3389793355599977  0.30666781796026044  1.0000
  O   O13       1.0  0.8489048373885453  0.08130335577880032  0.2182806656928733  1.0000
  O   O14       1.0  0.6022604086901993  0.797389266139362  0.15190282207913697  1.0000
data_image54
_chemical_formula_structural       Pr2P2H10C2O14
_chemical_formula_sum              "Pr2 P2 H10 C2 O14"
_cell_length_a       6.761788999999999
_cell_length_b       7.146483751908908
_cell_length_c       7.843598011864962
_cell_angle_alpha    110.54253585495134
_cell_angle_beta     95.79501476046597
_cell_angle_gamma    89.49575901902455

_space_group_name_H-M_alt    "P 1"
_space_group_IT_number       1

loop_
  _space_group_symop_operation_xyz
  'x, y, z'

loop_
  _atom_site_type_symbol
  _atom_site_label
  _atom_site_symmetry_multiplicity
  _atom_site_fract_x
  _atom_site_fract_y
  _atom_site_fract_z
  _atom_site_occupancy
  Pr  Pr1       1.0  0.6660250609274954  0.4445272027514875  0.3725903008598834  1.0000
  Pr  Pr2       1.0  0.3276721276342869  0.9342279247939587  0.5497920063789934  1.0000
  P   P1        1.0  0.36816951259970665  0.49358535557985306  0.6863613910973072  1.0000
  P   P2        1.0  0.8403391018509865  0.91031414270401  0.36326754838228226  1.0000
  H   H1        1.0  0.9104689210653305  0.4972639549523592  0.5527384248562157  1.0000
  H   H2        1.0  0.46527303813854815  0.9135027322918177  0.17565584369003773  1.0000
  H   H3        1.0  0.9322069325717166  0.2698942474089563  0.6326671410351992  1.0000
  H   H4        1.0  0.11182041931897402  0.763098469004035  0.6837337804026902  1.0000
  H   H5        1.0  0.4890038073062897  0.341236416134052  0.7535647745244205  1.0000
  H   H6        1.0  0.0013628960587084293  0.05856786388903856  0.17459889739984646  1.0000
  H   H7        1.0  0.2524634505971335  0.6757913716137409  0.27043759170919657  1.0000
  H   H8        1.0  0.19263940141536295  0.9504064451903105  0.6197908944450319  1.0000
  H   H9        1.0  0.6714958216180094  0.5353084485977888  0.24976321123540401  1.0000
  H   H10       1.0  0.2779947060626  0.045741647481918335  0.39577670581638813  1.0000
  C   C1        1.0  0.12733755190856755  0.6196278054267168  0.3270724113099277  1.0000
  C   C2        1.0  0.5407362484838814  0.01629729161504656  0.4972659027262125  1.0000
  O   O1        1.0  0.8808384178846609  0.7367782004730543  0.9200573901180178  1.0000
  O   O2        1.0  0.8377733991947025  0.9206507197523024  0.945510919438675  1.0000
  O   O3        1.0  0.5936147162574343  0.7606643601611722  0.4364684782703989  1.0000
  O   O4        1.0  0.7124331212835386  0.07769335387274623  0.2940514424117282  1.0000
  O   O5        1.0  0.9967814201663714  0.2116086051100865  0.36704903410281986  1.0000
  O   O6        1.0  0.7446042932569981  0.6193256678525358  0.7476208087755367  1.0000
  O   O7        1.0  0.4110265066919965  0.5384987590659875  0.7575500545790419  1.0000
  O   O8        1.0  0.9944032008061185  0.31666202886844985  0.632236881647259  1.0000
  O   O9        1.0  0.1410895304288715  0.430241234600544  0.8659658447140828  1.0000
  O   O10       1.0  0.546520872740075  0.7135608530370519  0.1708901984093245  1.0000
  O   O11       1.0  0.11926385568222031  0.2013690244348254  0.11902740324148908  1.0000
  O   O12       1.0  0.750956589152338  0.6936745902639814  0.35148482396107283  1.0000
  O   O13       1.0  0.871530962176621  0.0972675034427084  0.10935554129537195  1.0000
  O   O14       1.0  0.11060349445324391  0.3952301346726017  0.698064514901489  1.0000
data_image55
_chemical_formula_structural       Pr2P2H10C2O14
_chemical_formula_sum              "Pr2 P2 H10 C2 O14"
_cell_length_a       6.761788999999999
_cell_length_b       7.146483751908908
_cell_length_c       7.843598011864962
_cell_angle_alpha    110.54253585495134
_cell_angle_beta     95.79501476046597
_cell_angle_gamma    89.49575901902455

_space_group_name_H-M_alt    "P 1"
_space_group_IT_number       1

loop_
  _space_group_symop_operation_xyz
  'x, y, z'

loop_
  _atom_site_type_symbol
  _atom_site_label
  _atom_site_symmetry_multiplicity
  _atom_site_fract_x
  _atom_site_fract_y
  _atom_site_fract_z
  _atom_site_occupancy
  Pr  Pr1       1.0  0.8209366295486689  0.08195976447314024  0.5113178971223533  1.0000
  Pr  Pr2       1.0  0.3842712417244911  0.24735812656581402  0.988211965886876  1.0000
  P   P1        1.0  0.9692835882306099  0.0933107752352953  0.0006807185709476471  1.0000
  P   P2        1.0  0.9091337397694588  0.4861203543841839  0.833896704018116  1.0000
  H   H1        1.0  0.7537140473723412  0.7059914469718933  0.3085753242485225  1.0000
  H   H2        1.0  0.2093783780001104  0.380831578746438  0.7050913572311401  1.0000
  H   H3        1.0  0.10716759518254548  0.22242685360834002  0.10844389023259282  1.0000
  H   H4        1.0  0.8815966751426458  0.012625310104340315  0.5345501373521984  1.0000
  H   H5        1.0  0.1978222569450736  0.24539280752651393  0.16992848366498947  1.0000
  H   H6        1.0  0.3790142382495105  0.38794915610924363  0.5643222882645205  1.0000
  H   H7        1.0  0.5889127026312053  0.8212547746952623  0.19744557794183493  1.0000
  H   H8        1.0  0.2762910211458802  0.817184912506491  0.4992206678725779  1.0000
  H   H9        1.0  0.2044006292708218  0.12029842101037502  0.9829787351191044  1.0000
  H   H10       1.0  0.2881838364992291  0.884956207126379  0.9256018605083227  1.0000
  C   C1        1.0  0.13798328372649848  0.6841945443302393  0.7150287725380622  1.0000
  C   C2        1.0  0.34398863301612437  0.289641137002036  0.21804070586222224  1.0000
  O   O1        1.0  0.5590667731303256  0.46025353816730785  0.8647190666815732  1.0000
  O   O2        1.0  0.14039829117245972  0.9641946759220446  0.28205759124830365  1.0000
  O   O3        1.0  0.24040868534939364  0.14876621009898372  0.3292628087219782  1.0000
  O   O4        1.0  0.37098722613882273  0.6389251702930778  0.47869802033528686  1.0000
  O   O5        1.0  0.5896889341529459  0.27374851098284125  0.4471154586644843  1.0000
  O   O6        1.0  0.4513060091994703  0.5663832435384393  0.992778887739405  1.0000
  O   O7        1.0  0.39742970561928814  0.7142737550093443  0.3901476623068447  1.0000
  O   O8        1.0  0.23272862005978823  0.33973086657351814  0.20315358066000044  1.0000
  O   O9        1.0  0.2376458162907511  0.7981781795388088  0.9832509183324873  1.0000
  O   O10       1.0  0.8794980647508055  0.4802563257981092  0.4323516595904948  1.0000
  O   O11       1.0  0.20038496219785884  0.32094113976927474  0.6262679644278251  1.0000
  O   O12       1.0  0.702900902597321  0.6519948609929997  0.17145869592786767  1.0000
  O   O13       1.0  0.9072298358660191  0.7116827731078956  0.8603344347793609  1.0000
  O   O14       1.0  0.05025434691924602  0.5975146337514161  0.6095587559975684  1.0000
data_image56
_chemical_formula_structural       Pr2P2H10C2O14
_chemical_formula_sum              "Pr2 P2 H10 C2 O14"
_cell_length_a       6.761788999999999
_cell_length_b       7.146483751908908
_cell_length_c       7.843598011864962
_cell_angle_alpha    110.54253585495134
_cell_angle_beta     95.79501476046597
_cell_angle_gamma    89.49575901902455

_space_group_name_H-M_alt    "P 1"
_space_group_IT_number       1

loop_
  _space_group_symop_operation_xyz
  'x, y, z'

loop_
  _atom_site_type_symbol
  _atom_site_label
  _atom_site_symmetry_multiplicity
  _atom_site_fract_x
  _atom_site_fract_y
  _atom_site_fract_z
  _atom_site_occupancy
  Pr  Pr1       1.0  0.2206337337847799  0.5543809211812913  0.9604601445607841  1.0000
  Pr  Pr2       1.0  0.03922418411821127  0.6043002884835005  0.091979228425771  1.0000
  P   P1        1.0  0.19652846455574036  0.8227105252444744  0.1722125019878149  1.0000
  P   P2        1.0  0.5738327503204346  0.739650297909975  0.8793510496616364  1.0000
  H   H1        1.0  0.4688318092375994  0.1677809413522482  0.4284861837513745  1.0000
  H   H2        1.0  0.11531507223844528  0.3015065463259816  0.375152125954628  1.0000
  H   H3        1.0  0.20878760272171348  0.39376120874658227  0.5728168827481568  1.0000
  H   H4        1.0  0.7732016099616885  0.0017814268358051777  0.6441985594574362  1.0000
  H   H5        1.0  0.8130217678844929  0.10086336173117161  0.6420616116374731  1.0000
  H   H6        1.0  0.28025569999590516  0.870282769203186  0.22581118147354573  1.0000
  H   H7        1.0  0.6951794779160991  0.033772390335798264  0.08745659934356809  1.0000
  H   H8        1.0  0.7489071909803897  0.2808352862484753  0.11308700148947537  1.0000
  H   H9        1.0  0.7478898343979381  0.4279790949076414  0.3002737211063504  1.0000
  H   H10       1.0  0.41317195631563663  0.06888807564973831  0.5604621171951294  1.0000
  C   C1        1.0  0.42730799969285727  0.0793324583210051  0.2644422752200626  1.0000
  C   C2        1.0  0.24811592302285135  0.1722433080431074  0.6204954679706134  1.0000
  O   O1        1.0  0.29174426494864747  0.976763960927201  0.4882080073002726  1.0000
  O   O2        1.0  0.19768260803539306  0.7348496472477564  0.5674627971602604  1.0000
  O   O3        1.0  0.056465769856004044  0.5556416972831357  0.9464930675458163  1.0000
  O   O4        1.0  0.557015918311663  0.4554754188284278  0.832789552398026  1.0000
  O   O5        1.0  0.545561449311208  0.5866648426745087  0.9191965764912311  1.0000
  O   O6        1.0  0.5883377387654036  0.7013867518398911  0.9870835313340649  1.0000
  O   O7        1.0  0.6362058375416382  0.16648796156368917  0.09170474544225726  1.0000
  O   O8        1.0  0.08125696470960975  0.8962278703984339  0.1477930246037431  1.0000
  O   O9        1.0  0.1908753113821149  0.7377591717522591  0.31217197445221245  1.0000
  O   O10       1.0  0.2987954542040825  0.39605098468018696  0.12075997562351404  1.0000
  O   O11       1.0  0.37066865034285  0.7510706846951507  0.7778177507570945  1.0000
  O   O12       1.0  0.5222272955707012  0.14302333764499053  0.24683578607073287  1.0000
  O   O13       1.0  0.42184352211188525  0.9805858802865259  0.30582130391849205  1.0000
  O   O14       1.0  0.5398583414498717  0.32537112110003363  0.6604973038192838  1.0000
data_image57
_chemical_formula_structural       Pr2P2H10C2O14
_chemical_formula_sum              "Pr2 P2 H10 C2 O14"
_cell_length_a       6.761788999999999
_cell_length_b       7.146483751908908
_cell_length_c       7.843598011864962
_cell_angle_alpha    110.54253585495134
_cell_angle_beta     95.79501476046597
_cell_angle_gamma    89.49575901902455

_space_group_name_H-M_alt    "P 1"
_space_group_IT_number       1

loop_
  _space_group_symop_operation_xyz
  'x, y, z'

loop_
  _atom_site_type_symbol
  _atom_site_label
  _atom_site_symmetry_multiplicity
  _atom_site_fract_x
  _atom_site_fract_y
  _atom_site_fract_z
  _atom_site_occupancy
  Pr  Pr1       1.0  0.9377100020647049  0.4391095321625471  0.8946212527807802  1.0000
  Pr  Pr2       1.0  0.8399507272988558  0.38378428667783737  0.019089554902166128  1.0000
  P   P1        1.0  0.09972546249628067  0.41512310691177845  0.7910605762153864  1.0000
  P   P2        1.0  0.36654946208000183  0.15943755581974983  0.5910336598753929  1.0000
  H   H1        1.0  0.6024790108203888  0.25664757192134857  0.8484246856532991  1.0000
  H   H2        1.0  0.2150260377675295  0.716212690807879  0.10379745066165924  1.0000
  H   H3        1.0  0.11592995864339173  0.09086241805925965  0.4516783794388175  1.0000
  H   H4        1.0  0.4222979536280036  0.6413861382752657  0.9703317345120013  1.0000
  H   H5        1.0  0.828139079734683  0.020319694420322776  0.5295263906009495  1.0000
  H   H6        1.0  0.7197658373042941  0.5084121846593916  0.40995519084390253  1.0000
  H   H7        1.0  0.6128770827781409  0.5198982814326882  0.020380592439323664  1.0000
  H   H8        1.0  0.08462152606807649  0.9639149899594486  0.6338267959654331  1.0000
  H   H9        1.0  0.9659707993268967  0.6809089165180922  0.41084327828139067  1.0000
  H   H10       1.0  0.6870972639881074  0.36112209036946297  0.13285558484494686  1.0000
  C   C1        1.0  0.6876398916356266  0.3952893642708659  0.2100611148052849  1.0000
  C   C2        1.0  0.784230274381116  0.5789534954819828  0.5186909890908282  1.0000
  O   O1        1.0  0.5584023254341446  0.15078373032338277  0.8887149730580859  1.0000
  O   O2        1.0  0.11103199003264308  0.8777081778534921  0.8845142120262608  1.0000
  O   O3        1.0  0.9264503450831398  0.4571281044045463  0.12436659767990932  1.0000
  O   O4        1.0  0.12239401543047279  0.42449263879098  0.8069549697684124  1.0000
  O   O5        1.0  0.3805451965308748  0.4575114456238225  0.5632201013213489  1.0000
  O   O6        1.0  0.14834532281383872  0.294724908657372  0.9671089933835901  1.0000
  O   O7        1.0  0.11397209175993339  0.3648023791720334  0.24473917495197384  1.0000
  O   O8        1.0  0.8740708068944514  0.10805520383291878  0.7898667798144743  1.0000
  O   O9        1.0  0.7228729764465243  0.8786028490867466  0.6904155443189666  1.0000
  O   O10       1.0  0.7742906741332263  0.8634135734173469  0.9428037522120576  1.0000
  O   O11       1.0  0.7219870192348026  0.11892629743670113  0.6530305834021419  1.0000
  O   O12       1.0  0.9784582661395689  0.808105287826038  0.6720886113907909  1.0000
  O   O13       1.0  0.8399973914492875  0.24778914483613335  0.07558525260537863  1.0000
  O   O14       1.0  0.9296323180897161  0.6047688948892755  0.3731868923641741  1.0000
data_image58
_chemical_formula_structural       Pr2P2H10C2O14
_chemical_formula_sum              "Pr2 P2 H10 C2 O14"
_cell_length_a       6.761788999999999
_cell_length_b       7.146483751908908
_cell_length_c       7.843598011864962
_cell_angle_alpha    110.54253585495134
_cell_angle_beta     95.79501476046597
_cell_angle_gamma    89.49575901902455

_space_group_name_H-M_alt    "P 1"
_space_group_IT_number       1

loop_
  _space_group_symop_operation_xyz
  'x, y, z'

loop_
  _atom_site_type_symbol
  _atom_site_label
  _atom_site_symmetry_multiplicity
  _atom_site_fract_x
  _atom_site_fract_y
  _atom_site_fract_z
  _atom_site_occupancy
  Pr  Pr1       1.0  0.35106082912534475  0.8451073472388089  0.04243879648856819  1.0000
  Pr  Pr2       1.0  0.5226353369653225  0.9679642748087645  0.9380551329813898  1.0000
  P   P1        1.0  0.14093323051929474  0.7574570365250111  0.8480092063546181  1.0000
  P   P2        1.0  0.3262144401669502  0.8355267904698849  0.8570452332496643  1.0000
  H   H1        1.0  0.7930432427674532  0.7707223370671272  0.5940480490680784  1.0000
  H   H2        1.0  0.09912109514698386  0.6194152655079961  0.4287791736423969  1.0000
  H   H3        1.0  0.8202382096787915  0.23385865753516555  0.5117567307315767  1.0000
  H   H4        1.0  0.7566612102091312  0.22129236441105604  0.7383120423182845  1.0000
  H   H5        1.0  0.943870082963258  0.8546138678211719  0.3402295997366309  1.0000
  H   H6        1.0  0.7459038821980357  0.35655084205791354  0.05352324200794101  1.0000
  H   H7        1.0  0.42995398910716176  0.9391053096624091  0.9945784122683108  1.0000
  H   H8        1.0  0.8145862997043878  0.44656724855303764  0.06096661277115345  1.0000
  H   H9        1.0  0.26931579230586067  0.23496953956782818  0.35407623928040266  1.0000
  H   H10       1.0  0.8030577450990677  0.8588265851140022  0.13372140191495419  1.0000
  C   C1        1.0  0.4976621614769101  0.68959398008883  0.5426912664552219  1.0000
  C   C2        1.0  0.31957938615232706  0.18331077275797725  0.8030145579978125  1.0000
  O   O1        1.0  0.7860374287702143  0.1933789703398361  0.3092244816652965  1.0000
  O   O2        1.0  0.3302284289384261  0.08960078174277442  0.033890732447616756  1.0000
  O   O3        1.0  0.0419720130157657  0.9969819840043783  0.2769813444101601  1.0000
  O   O4        1.0  0.412600465293508  0.6953353526769206  0.8536868970841169  1.0000
  O   O5        1.0  0.023271561018191278  0.9809972628718242  0.9980395591992419  1.0000
  O   O6        1.0  0.07750352052971721  0.1537303056102246  0.13068513956386596  1.0000
  O   O7        1.0  0.525941043633793  0.7654199812823208  0.4098450626624981  1.0000
  O   O8        1.0  0.3029004147974774  0.6918370890489314  0.20102644531289116  1.0000
  O   O9        1.0  0.20857532299123704  0.5788218593224883  0.9554726721253246  1.0000
  O   O10       1.0  0.3088162102503702  0.4512694711302174  0.692931745761598  1.0000
  O   O11       1.0  0.5806439513980877  0.2778155545529444  0.10794241778785363  1.0000
  O   O12       1.0  0.04159011804222246  0.1622127841837937  0.5963469260314014  1.0000
  O   O13       1.0  0.8907656031660736  0.2794999815814663  0.3381609710631892  1.0000
  O   O14       1.0  0.5344992356840521  0.5690822874930745  0.6067623775452375  1.0000
data_image59
_chemical_formula_structural       Pr2P2H10C2O14
_chemical_formula_sum              "Pr2 P2 H10 C2 O14"
_cell_length_a       6.761788999999999
_cell_length_b       7.146483751908908
_cell_length_c       7.843598011864962
_cell_angle_alpha    110.54253585495134
_cell_angle_beta     95.79501476046597
_cell_angle_gamma    89.49575901902455

_space_group_name_H-M_alt    "P 1"
_space_group_IT_number       1

loop_
  _space_group_symop_operation_xyz
  'x, y, z'

loop_
  _atom_site_type_symbol
  _atom_site_label
  _atom_site_symmetry_multiplicity
  _atom_site_fract_x
  _atom_site_fract_y
  _atom_site_fract_z
  _atom_site_occupancy
  Pr  Pr1       1.0  0.2180954134091735  0.7553675428498536  0.6187205566093326  1.0000
  Pr  Pr2       1.0  0.9392286818474531  0.8156470339745283  0.8024771527852863  1.0000
  P   P1        1.0  0.08074086531996727  0.6505135502666235  0.7283575125038624  1.0000
  P   P2        1.0  0.7666063979268074  0.5341024398803711  0.5986001528799534  1.0000
  H   H1        1.0  0.5594909051433206  0.20159904938191175  0.29542702159960754  1.0000
  H   H2        1.0  0.559302263893187  0.07992531824856997  0.36466097086668015  1.0000
  H   H3        1.0  0.16847818822134286  0.8310770890675485  0.9757471573539078  1.0000
  H   H4        1.0  0.6504725310951471  0.41580620082095265  0.579091832973063  1.0000
  H   H5        1.0  0.2806591158732772  0.01357966079376638  0.27174544241279364  1.0000
  H   H6        1.0  0.912085844669491  0.45846343599259853  0.6790119423530996  1.0000
  H   H7        1.0  0.26941817067563534  0.5688599679851905  0.14200296672061086  1.0000
  H   H8        1.0  0.0905757782747969  0.5467574647627771  0.20028977235779166  1.0000
  H   H9        1.0  0.7443344136117958  0.5539224166423082  0.05427121836692095  1.0000
  H   H10       1.0  0.6427899403497577  0.21385438088327646  0.9569592149928212  1.0000
  C   C1        1.0  0.28783737076446414  0.6773385042324662  0.593977136304602  1.0000
  C   C2        1.0  0.30784041760489345  0.527680333936587  0.20563291880534962  1.0000
  O   O1        1.0  0.3836212349124253  0.9132236703298986  0.8897763695567846  1.0000
  O   O2        1.0  0.06036437943112105  0.1517864813504275  0.4227677738526836  1.0000
  O   O3        1.0  0.31035705958493054  0.9016426421003416  0.46509558503021253  1.0000
  O   O4        1.0  0.26261844008695334  0.8971623774850741  0.9013059666613117  1.0000
  O   O5        1.0  0.2510150907910429  0.8424761415226385  0.09165484955883585  1.0000
  O   O6        1.0  0.4902883404865861  0.1612290544435382  0.7161292072851211  1.0000
  O   O7        1.0  0.7839944783700048  0.038532201724592596  0.41294866342650494  1.0000
  O   O8        1.0  0.017190946615301073  0.34727276454214007  0.936461561388569  1.0000
  O   O9        1.0  0.2766124561894685  0.6958024350460619  0.4747251004446298  1.0000
  O   O10       1.0  0.5887544960714877  0.7894176319678081  0.291077924601268  1.0000
  O   O11       1.0  0.1970564845832996  0.30160186503781006  0.02077672682935372  1.0000
  O   O12       1.0  0.11453953562886454  0.30279994117154274  0.6287964597649989  1.0000
  O   O13       1.0  0.25442835013382137  0.2930858542677015  0.35511294507887214  1.0000
  O   O14       1.0  0.9113036390626803  0.659437320951838  0.8067211387678981  1.0000
data_image60
_chemical_formula_structural       Pr2P2H10C2O14
_chemical_formula_sum              "Pr2 P2 H10 C2 O14"
_cell_length_a       6.761788999999999
_cell_length_b       7.146483751908908
_cell_length_c       7.843598011864962
_cell_angle_alpha    110.54253585495134
_cell_angle_beta     95.79501476046597
_cell_angle_gamma    89.49575901902455

_space_group_name_H-M_alt    "P 1"
_space_group_IT_number       1

loop_
  _space_group_symop_operation_xyz
  'x, y, z'

loop_
  _atom_site_type_symbol
  _atom_site_label
  _atom_site_symmetry_multiplicity
  _atom_site_fract_x
  _atom_site_fract_y
  _atom_site_fract_z
  _atom_site_occupancy
  Pr  Pr1       1.0  0.43165013450197875  0.8059637062251568  0.2851025415584445  1.0000
  Pr  Pr2       1.0  0.4751861523836851  0.6573047935962677  0.30396871315315366  1.0000
  P   P1        1.0  0.24505477398633957  0.4613109533675015  0.9285177774727345  1.0000
  P   P2        1.0  0.8292544186115265  0.31121011823415756  0.17158357612788677  1.0000
  H   H1        1.0  0.5514391018077731  0.6643869429826736  0.7863411866710521  1.0000
  H   H2        1.0  0.5744507145136595  0.1765750302001834  0.20609944313764572  1.0000
  H   H3        1.0  0.26287688335287385  0.15172330848872662  0.8105358700267971  1.0000
  H   H4        1.0  0.893354993313551  0.6407999987713993  0.7781325373798609  1.0000
  H   H5        1.0  0.49670446664094925  0.010276590124703944  0.7730150148272514  1.0000
  H   H6        1.0  0.07549499906599522  0.7238533366471529  0.21225510397925973  1.0000
  H   H7        1.0  0.8680902841151692  0.16722697392106056  0.10477481316775084  1.0000
  H   H8        1.0  0.9412481468170881  0.42995971627533436  0.05312334978953004  1.0000
  H   H9        1.0  0.896914639044553  0.9660916402935982  0.20517530851066113  1.0000
  H   H10       1.0  0.30246691405773163  0.9735625386238098  0.15121240727603436  1.0000
  C   C1        1.0  0.34510787343606353  0.39003497641533613  0.7823060525115579  1.0000
  C   C2        1.0  0.29666937701404095  0.28766626259312034  0.037395748193375766  1.0000
  O   O1        1.0  0.7264057933352888  0.7306956239044666  0.8940076511353254  1.0000
  O   O2        1.0  0.5125451041385531  0.16238957399036735  0.6495273074542638  1.0000
  O   O3        1.0  0.7888988118502311  0.014794334070757031  0.4092674749554135  1.0000
  O   O4        1.0  0.20456943719182163  0.1628078952198848  0.8282050208654255  1.0000
  O   O5        1.0  0.3539631179883145  0.8872661241330206  0.4714109630440362  1.0000
  O   O6        1.0  0.23977798444684595  0.17206192878074944  0.7481054255622439  1.0000
  O   O7        1.0  0.6698488125985023  0.07105069907811412  0.11801578843733296  1.0000
  O   O8        1.0  0.758653684752062  0.964799313864205  0.3214682883990463  1.0000
  O   O9        1.0  0.6592875057831407  0.8069238245952874  0.7948659205576405  1.0000
  O   O10       1.0  0.46999933605547994  0.019409722997806966  0.3437421148410067  1.0000
  O   O11       1.0  0.7989076892845333  0.44528781140979845  0.19195097852207255  1.0000
  O   O12       1.0  0.3224601032670762  0.9628321000200231  0.23019186777673895  1.0000
  O   O13       1.0  0.8731519039720297  0.06560264839208685  0.5076580604654737  1.0000
  O   O14       1.0  0.5072359713958576  0.8563929839292541  0.5697936384240165  1.0000
data_image61
_chemical_formula_structural       Pr2P2H10C2O14
_chemical_formula_sum              "Pr2 P2 H10 C2 O14"
_cell_length_a       6.761788999999999
_cell_length_b       7.146483751908908
_cell_length_c       7.843598011864962
_cell_angle_alpha    110.54253585495134
_cell_angle_beta     95.79501476046597
_cell_angle_gamma    89.49575901902455

_space_group_name_H-M_alt    "P 1"
_space_group_IT_number       1

loop_
  _space_group_symop_operation_xyz
  'x, y, z'

loop_
  _atom_site_type_symbol
  _atom_site_label
  _atom_site_symmetry_multiplicity
  _atom_site_fract_x
  _atom_site_fract_y
  _atom_site_fract_z
  _atom_site_occupancy
  Pr  Pr1       1.0  0.2183519988320768  0.5864736633375287  0.7538262321613729  1.0000
  Pr  Pr2       1.0  0.19786127097904682  0.6411943286657333  0.9953140541911125  1.0000
  P   P1        1.0  0.558953233063221  0.4706750176846981  0.41675203666090965  1.0000
  P   P2        1.0  0.9763402715325356  0.06182195246219635  0.5714694503694773  1.0000
  H   H1        1.0  0.9441590998321772  0.8715302795171738  0.6273320029722527  1.0000
  H   H2        1.0  0.981453777756542  0.5113304648548365  0.10657856613397598  1.0000
  H   H3        1.0  0.7561253025196493  0.9600859857164323  0.6113861026242375  1.0000
  H   H4        1.0  0.08719888888299465  0.0964630376547575  0.6713714906945825  1.0000
  H   H5        1.0  0.21651399601250887  0.006413902272470295  0.024068054975941777  1.0000
  H   H6        1.0  0.7193784806877375  0.9125130390748382  0.9312012600712478  1.0000
  H   H7        1.0  0.05754024343332276  0.7454335335642099  0.6281989105045795  1.0000
  H   H8        1.0  0.03400918934494257  0.009013143135234714  0.9545948100276291  1.0000
  H   H9        1.0  0.6072628383408301  0.3779113870114088  0.6422830643132329  1.0000
  H   H10       1.0  0.44715365022420883  0.4655161052942276  0.4547700732946396  1.0000
  C   C1        1.0  0.12299793912097812  0.5938364081084728  0.27106422442011535  1.0000
  C   C2        1.0  0.6740785692818463  0.2922627190127969  0.5888024849700741  1.0000
  O   O1        1.0  0.2749891676940024  0.2719839494675398  0.3291577659547329  1.0000
  O   O2        1.0  0.32712099025957286  0.21353549254126847  0.7341152709632297  1.0000
  O   O3        1.0  0.42743375402642414  0.9620441357546952  0.9912282520672306  1.0000
  O   O4        1.0  0.20661824382841587  0.5380675597116351  0.986062636366114  1.0000
  O   O5        1.0  0.2277296173851937  0.06449285917915404  0.7192044408075162  1.0000
  O   O6        1.0  0.8648521533468738  0.3935216087847948  0.7536936999531463  1.0000
  O   O7        1.0  0.025765451176994247  0.14576194740902793  0.8634794071840588  1.0000
  O   O8        1.0  0.7326939767226577  0.37045493960613385  0.042208126942568924  1.0000
  O   O9        1.0  0.7000565056223422  0.012291147373616695  0.5034527841489762  1.0000
  O   O10       1.0  0.9595600317697972  0.8865910021122545  0.6044214735738933  1.0000
  O   O11       1.0  0.5425475427764468  0.2622846715821652  0.8634676300862338  1.0000
  O   O12       1.0  0.17390442221221747  0.7047407420468517  0.47498884467131575  1.0000
  O   O13       1.0  0.12893416837323457  0.30587549170013517  0.15682232985273004  1.0000
  O   O14       1.0  0.8562013615155593  0.6038742477539927  0.8468746938742697  1.0000
data_image62
_chemical_formula_structural       Pr2P2H10C2O14
_chemical_formula_sum              "Pr2 P2 H10 C2 O14"
_cell_length_a       6.761788999999999
_cell_length_b       7.146483751908908
_cell_length_c       7.843598011864962
_cell_angle_alpha    110.54253585495134
_cell_angle_beta     95.79501476046597
_cell_angle_gamma    89.49575901902455

_space_group_name_H-M_alt    "P 1"
_space_group_IT_number       1

loop_
  _space_group_symop_operation_xyz
  'x, y, z'

loop_
  _atom_site_type_symbol
  _atom_site_label
  _atom_site_symmetry_multiplicity
  _atom_site_fract_x
  _atom_site_fract_y
  _atom_site_fract_z
  _atom_site_occupancy
  Pr  Pr1       1.0  0.022040609968826175  0.38282153382897377  0.0469940141774714  1.0000
  Pr  Pr2       1.0  0.850076962262392  0.0548483207821846  0.9043446592986584  1.0000
  P   P1        1.0  0.9306862093508244  0.7926577385514975  0.9147000163793564  1.0000
  P   P2        1.0  0.4557906314730644  0.851052314043045  0.46362489834427834  1.0000
  H   H1        1.0  0.9731751875951886  0.43402156978845596  0.40841908985748887  1.0000
  H   H2        1.0  0.9469175282865763  0.7500020572915673  0.6550089307129383  1.0000
  H   H3        1.0  0.3248556007165462  0.03431706363335252  0.43702561408281326  1.0000
  H   H4        1.0  0.21638394985347986  0.3075549630448222  0.41701928060501814  1.0000
  H   H5        1.0  0.0017386144027113914  0.4994546367088333  0.28807450318709016  1.0000
  H   H6        1.0  0.9085357552394271  0.47758468333631754  0.9191555716097355  1.0000
  H   H7        1.0  0.7805573730147444  0.10548823862336576  0.43479570653289557  1.0000
  H   H8        1.0  0.7622557645663619  0.31368913082405925  0.5605179071426392  1.0000
  H   H9        1.0  0.5377623360254802  0.36995362862944603  0.963977032341063  1.0000
  H   H10       1.0  0.5915600005537271  0.6089257374405861  0.7066578827798367  1.0000
  C   C1        1.0  0.23433069651946425  0.9707679683342576  0.6638964887242764  1.0000
  C   C2        1.0  0.08107017748989165  0.542610403848812  0.7403069252031855  1.0000
  O   O1        1.0  0.8412988469935954  0.3186512812972069  0.13025372102856636  1.0000
  O   O2        1.0  0.6287315567024052  0.5349609714467078  0.4690285829565255  1.0000
  O   O3        1.0  0.6343790270620957  0.8406779741762875  0.37483729934319854  1.0000
  O   O4        1.0  0.85467265592888  0.15760839614085853  0.7773527335375547  1.0000
  O   O5        1.0  0.4801879136939533  0.419991550501436  0.09790788105601678  1.0000
  O   O6        1.0  0.00931123667396605  0.07768925675190985  0.6227655651746318  1.0000
  O   O7        1.0  0.4307838760632876  0.33110792689058144  0.5463406498747645  1.0000
  O   O8        1.0  0.2119817289058119  0.46822234062710777  0.3057464592566248  1.0000
  O   O9        1.0  0.9781552836066112  0.23274204158224165  0.3133070428157225  1.0000
  O   O10       1.0  0.9907116503454745  0.8427815969334915  0.008591812431404833  1.0000
  O   O11       1.0  0.5907721711555496  0.9026221420208458  0.7866974661992572  1.0000
  O   O12       1.0  0.2738331951964028  0.4067221251607407  0.9503278091287939  1.0000
  O   O13       1.0  0.17245979909785092  0.8496242459514178  0.3881165203638375  1.0000
  O   O14       1.0  0.1838820637203753  0.09784922481048852  0.5845025202725083  1.0000
data_image63
_chemical_formula_structural       Pr2P2H10C2O14
_chemical_formula_sum              "Pr2 P2 H10 C2 O14"
_cell_length_a       6.761788999999999
_cell_length_b       7.146483751908908
_cell_length_c       7.843598011864962
_cell_angle_alpha    110.54253585495134
_cell_angle_beta     95.79501476046597
_cell_angle_gamma    89.49575901902455

_space_group_name_H-M_alt    "P 1"
_space_group_IT_number       1

loop_
  _space_group_symop_operation_xyz
  'x, y, z'

loop_
  _atom_site_type_symbol
  _atom_site_label
  _atom_site_symmetry_multiplicity
  _atom_site_fract_x
  _atom_site_fract_y
  _atom_site_fract_z
  _atom_site_occupancy
  Pr  Pr1       1.0  0.7097711607348174  0.08533094450831413  0.784340186859481  1.0000
  Pr  Pr2       1.0  0.6965781999751925  0.4939705617725849  0.7138807782903314  1.0000
  P   P1        1.0  0.9497366026043892  0.9925382621586323  0.35471983812749386  1.0000
  P   P2        1.0  0.06801286339759827  0.5502754598855972  0.5720232781022787  1.0000
  H   H1        1.0  0.5107428273186088  0.8373459856957197  0.9917289040749893  1.0000
  H   H2        1.0  0.4732314017601311  0.47203684877604246  0.50881053134799  1.0000
  H   H3        1.0  0.7590335344430059  0.7564002806320786  0.2081765392795205  1.0000
  H   H4        1.0  0.600284337066114  0.3539527007378638  0.031351483426988125  1.0000
  H   H5        1.0  0.6142345238476992  0.9424567602109164  0.8847581364680082  1.0000
  H   H6        1.0  0.5042314501479268  0.32775877695530653  0.5152765633538365  1.0000
  H   H7        1.0  0.21529384644236416  0.27429019601549953  0.6672457754611969  1.0000
  H   H8        1.0  0.7269989317283034  0.9721576496958733  0.19557877024635673  1.0000
  H   H9        1.0  0.9990121605223976  0.10621935687959194  0.47066034097224474  1.0000
  H   H10       1.0  0.36086548678576946  0.2597832567989826  0.7307109944522381  1.0000
  C   C1        1.0  0.3558912589214742  0.4054074930027127  0.44494170090183616  1.0000
  C   C2        1.0  0.15739057306200266  0.605956434737891  0.7836700971238315  1.0000
  O   O1        1.0  0.8906943127512932  0.9147750269621611  0.5868253819644451  1.0000
  O   O2        1.0  0.16149270860478282  0.3088803025893867  0.222182328812778  1.0000
  O   O3        1.0  0.42317858804017305  0.6840278046447565  0.5979212233796716  1.0000
  O   O4        1.0  0.2994510370772332  0.7921829780098051  0.708482954883948  1.0000
  O   O5        1.0  0.37909268448129296  0.9625795022584498  0.6730983478191774  1.0000
  O   O6        1.0  0.3145118914253544  0.2018887996673584  0.8388079629512504  1.0000
  O   O7        1.0  0.883659411498229  0.13943605819713412  0.13459824243182084  1.0000
  O   O8        1.0  0.9999427441507578  0.6627883150940761  0.15498764092626516  1.0000
  O   O9        1.0  0.6758359319064766  0.4150623872410506  0.1537591217784211  1.0000
  O   O10       1.0  0.7677673473954201  0.4736608691746369  0.007612103283463512  1.0000
  O   O11       1.0  0.22396035224664956  0.7913243423245149  0.3890746556717204  1.0000
  O   O12       1.0  0.10714029809241765  0.9536547419556882  0.6901534847202129  1.0000
  O   O13       1.0  0.9286808028118685  0.3215089396981057  0.09345816331915557  1.0000
  O   O14       1.0  0.9087149589322507  0.7034738637739792  0.8904819004237652  1.0000
data_image64
_chemical_formula_structural       Pr2P2H10C2O14
_chemical_formula_sum              "Pr2 P2 H10 C2 O14"
_cell_length_a       6.761788999999999
_cell_length_b       7.146483751908908
_cell_length_c       7.843598011864962
_cell_angle_alpha    110.54253585495134
_cell_angle_beta     95.79501476046597
_cell_angle_gamma    89.49575901902455

_space_group_name_H-M_alt    "P 1"
_space_group_IT_number       1

loop_
  _space_group_symop_operation_xyz
  'x, y, z'

loop_
  _atom_site_type_symbol
  _atom_site_label
  _atom_site_symmetry_multiplicity
  _atom_site_fract_x
  _atom_site_fract_y
  _atom_site_fract_z
  _atom_site_occupancy
  Pr  Pr1       1.0  0.9090139342006296  0.23599449545145035  0.05842186929658055  1.0000
  Pr  Pr2       1.0  0.026095421984791756  0.01905503123998642  0.6957616941072047  1.0000
  P   P1        1.0  0.6074224412441254  0.14934584684669971  0.3462383821606636  1.0000
  P   P2        1.0  0.34674181044101715  0.9855462461709976  0.10438240692019463  1.0000
  H   H1        1.0  0.3736449023708701  0.03353017941117287  0.009604297229088843  1.0000
  H   H2        1.0  0.8133335770107806  0.9216813771054149  0.5075544901192188  1.0000
  H   H3        1.0  0.5436525414697826  0.6063138591125607  0.31916259741410613  1.0000
  H   H4        1.0  0.7933004386723042  0.511677345726639  0.5812236997298896  1.0000
  H   H5        1.0  0.4395816111937165  0.8688480826094747  0.7412742914166301  1.0000
  H   H6        1.0  0.5381650133058429  0.9050495028495789  0.8587833279743791  1.0000
  H   H7        1.0  0.28393935307394713  0.61921769939363  0.18718747468665242  1.0000
  H   H8        1.0  0.21901200618594885  0.014797763898968697  0.22368788300082088  1.0000
  H   H9        1.0  0.638511415629182  0.3672641050070524  0.12198227923363447  1.0000
  H   H10       1.0  0.5312473382800817  0.5216907560825348  0.3520269561558962  1.0000
  C   C1        1.0  0.8110989490523934  0.9771087309345603  0.8714728148188442  1.0000
  C   C2        1.0  0.2957696246448904  0.8950727719347924  0.16941050597233698  1.0000
  O   O1        1.0  0.0729668103158474  0.3307483699172735  0.6833884082734585  1.0000
  O   O2        1.0  0.9978960915468633  0.230622528353706  0.08418615777918603  1.0000
  O   O3        1.0  0.764229705760954  0.7373234762480934  0.9551079696393572  1.0000
  O   O4        1.0  0.7724867998622358  0.22719027218408883  0.6382030034437776  1.0000
  O   O5        1.0  0.9955883827642538  0.6213776209624484  0.39443533961093635  1.0000
  O   O6        1.0  0.6546431710885372  0.5298169411253184  0.4905016333796084  1.0000
  O   O7        1.0  0.2611566764098825  0.856064316822085  0.4966353431591415  1.0000
  O   O8        1.0  0.0032966153230518103  0.9582699784077704  0.46262617945467355  1.0000
  O   O9        1.0  0.7809312648605555  0.6349315333645791  0.3682604213245213  1.0000
  O   O10       1.0  0.21370594331528991  0.699290648160968  0.7496879158316005  1.0000
  O   O11       1.0  0.5072561584529467  0.4689490571472561  0.5114674868318616  1.0000
  O   O12       1.0  0.6955326582465204  0.381459784519393  0.8479508746968349  1.0000
  O   O13       1.0  0.1792441214201972  0.5330273144354578  0.47347272076876834  1.0000
  O   O14       1.0  0.4118409240618348  0.5923021385679021  0.2930645023006946  1.0000
data_image65
_chemical_formula_structural       Pr2P2H10C2O14
_chemical_formula_sum              "Pr2 P2 H10 C2 O14"
_cell_length_a       6.761788999999999
_cell_length_b       7.146483751908908
_cell_length_c       7.843598011864962
_cell_angle_alpha    110.54253585495134
_cell_angle_beta     95.79501476046597
_cell_angle_gamma    89.49575901902455

_space_group_name_H-M_alt    "P 1"
_space_group_IT_number       1

loop_
  _space_group_symop_operation_xyz
  'x, y, z'

loop_
  _atom_site_type_symbol
  _atom_site_label
  _atom_site_symmetry_multiplicity
  _atom_site_fract_x
  _atom_site_fract_y
  _atom_site_fract_z
  _atom_site_occupancy
  Pr  Pr1       1.0  0.12232257891446352  0.29146050475537777  0.9171657703118399  1.0000
  Pr  Pr2       1.0  0.7036559842526913  0.9573965966701508  0.0717158792540431  1.0000
  P   P1        1.0  0.00978115200996399  0.7379925083369017  0.08222926966845989  1.0000
  P   P2        1.0  0.18559090793132782  0.5309107303619385  0.9685092177242041  1.0000
  H   H1        1.0  0.5771247930824757  0.6174658080562949  0.1811423080507666  1.0000
  H   H2        1.0  0.8691736808978021  0.049699739553034306  0.10591630637645721  1.0000
  H   H3        1.0  0.0646166552323848  0.7532748933881521  0.9478822844102979  1.0000
  H   H4        1.0  0.6637419871985912  0.12639609118923545  0.0824647075496614  1.0000
  H   H5        1.0  0.5986990043893456  0.4580167164094746  0.6329328380525112  1.0000
  H   H6        1.0  0.47090581245720387  0.5215902738273144  0.32120669446885586  1.0000
  H   H7        1.0  0.9122767603257671  0.3967258969787508  0.5840291506610811  1.0000
  H   H8        1.0  0.5683048935607076  0.6889741267077625  0.8614361132495105  1.0000
  H   H9        1.0  0.6831204658956267  0.8910548128187656  0.8805140303447843  1.0000
  H   H10       1.0  0.5822631493210793  0.3629520796239376  0.05898226611316204  1.0000
  C   C1        1.0  0.5099166487343609  0.7368611199781299  0.6147919739596546  1.0000
  C   C2        1.0  0.5358188815880567  0.4982077442109585  0.8854916390846483  1.0000
  O   O1        1.0  0.6389717324636877  0.060426877811551094  0.04004137963056564  1.0000
  O   O2        1.0  0.017210005782544613  0.8404499958269298  0.3679657893953845  1.0000
  O   O3        1.0  0.5092040592862759  0.7768059838672343  0.5655658558825962  1.0000
  O   O4        1.0  0.4898302238434553  0.8893821942619979  0.3044479244854301  1.0000
  O   O5        1.0  0.246073904709192  0.04518342204391956  0.9534142591401178  1.0000
  O   O6        1.0  0.8822237126296386  0.06446593510918319  0.5799676701426506  1.0000
  O   O7        1.0  0.80722549634811  0.33455128998411965  0.4025769600557396  1.0000
  O   O8        1.0  0.7052578740986064  0.9107047225697897  0.5538428407890024  1.0000
  O   O9        1.0  0.6757882345700637  0.4739978697616607  0.4357080002082512  1.0000
  O   O10       1.0  0.06929861020762473  0.039159308129455894  0.5473090752238932  1.0000
  O   O11       1.0  0.3893651000689715  0.6848867073422298  0.3913956271535426  1.0000
  O   O12       1.0  0.5787548152366071  0.5205291074817069  0.524079934170004  1.0000
  O   O13       1.0  0.6010986887849867  0.18551263626432046  0.4684289066353813  1.0000
  O   O14       1.0  0.881782716140151  0.5810803732601926  0.8651359196519479  1.0000
data_image66
_chemical_formula_structural       Pr2P2H10C2O14
_chemical_formula_sum              "Pr2 P2 H10 C2 O14"
_cell_length_a       6.761788999999999
_cell_length_b       7.146483751908908
_cell_length_c       7.843598011864962
_cell_angle_alpha    110.54253585495134
_cell_angle_beta     95.79501476046597
_cell_angle_gamma    89.49575901902455

_space_group_name_H-M_alt    "P 1"
_space_group_IT_number       1

loop_
  _space_group_symop_operation_xyz
  'x, y, z'

loop_
  _atom_site_type_symbol
  _atom_site_label
  _atom_site_symmetry_multiplicity
  _atom_site_fract_x
  _atom_site_fract_y
  _atom_site_fract_z
  _atom_site_occupancy
  Pr  Pr1       1.0  0.7148024206981063  0.475102074444294  0.23022383416537195  1.0000
  Pr  Pr2       1.0  0.8853361560031772  0.20182206481695175  0.5227688350714743  1.0000
  P   P1        1.0  0.7226522453129292  0.8790911547839642  0.3270467482507229  1.0000
  P   P2        1.0  0.992059014737606  0.12621279060840607  0.8136796373873949  1.0000
  H   H1        1.0  0.45186125859618187  0.3310254970565438  0.6184775942238048  1.0000
  H   H2        1.0  0.7237295852974057  0.8445398490875959  0.6072624325752258  1.0000
  H   H3        1.0  0.995553694665432  0.7656888095661998  0.08279098523780704  1.0000
  H   H4        1.0  0.7197100259363651  0.2995355688035488  0.9806356257759035  1.0000
  H   H5        1.0  0.2839756282046437  0.6715283053927124  0.7649073568172753  1.0000
  H   H6        1.0  0.7783481208607554  0.5173872271552682  0.12065112311393023  1.0000
  H   H7        1.0  0.22574918318423443  0.033049412129912525  0.6493057659827173  1.0000
  H   H8        1.0  0.5052519058808684  0.5931014057714492  0.7140235989354551  1.0000
  H   H9        1.0  0.7161212139180861  0.6552417650818825  0.9494601869955659  1.0000
  H   H10       1.0  0.010591777041554451  0.08273357897996902  0.9281293209642172  1.0000
  C   C1        1.0  0.4591809161938727  0.7380733424797654  0.13853858644142747  1.0000
  C   C2        1.0  0.6704693650826812  0.954848408466205  0.3574105573934503  1.0000
  O   O1        1.0  0.7331319078803062  0.7349714264273643  0.5477660223841667  1.0000
  O   O2        1.0  0.06701354868710041  0.6725284866988659  0.19871576165314764  1.0000
  O   O3        1.0  0.06659470847807825  0.3850791959121125  0.31332249025581405  1.0000
  O   O4        1.0  0.4880504834000021  0.1597063837107271  0.8564230112824589  1.0000
  O   O5        1.0  0.7851703969063237  0.9144792917650193  0.7627605686902825  1.0000
  O   O6        1.0  0.7687894550617784  0.8927785721607506  0.0032219039276242256  1.0000
  O   O7        1.0  0.016751341956478427  0.17217557898266023  0.08720176452334272  1.0000
  O   O8        1.0  0.34806685731746256  0.7800454868120141  0.6791084539181611  1.0000
  O   O9        1.0  0.8605372774181888  0.7392815148923546  0.12087853078264743  1.0000
  O   O10       1.0  0.34345374326221645  0.941667765204329  0.7921447265616735  1.0000
  O   O11       1.0  0.673463745682966  0.7079794641758781  0.8624071162084874  1.0000
  O   O12       1.0  0.14985869415977504  0.2595302225963678  0.6494280754995998  1.0000
  O   O13       1.0  0.8453986799577251  0.24316392300534062  0.356934430252295  1.0000
  O   O14       1.0  0.004931073170155287  0.6169859216315672  0.6483786093303934  1.0000
data_image67
_chemical_formula_structural       Pr2P2H10C2O14
_chemical_formula_sum              "Pr2 P2 H10 C2 O14"
_cell_length_a       6.761788999999999
_cell_length_b       7.146483751908908
_cell_length_c       7.843598011864962
_cell_angle_alpha    110.54253585495134
_cell_angle_beta     95.79501476046597
_cell_angle_gamma    89.49575901902455

_space_group_name_H-M_alt    "P 1"
_space_group_IT_number       1

loop_
  _space_group_symop_operation_xyz
  'x, y, z'

loop_
  _atom_site_type_symbol
  _atom_site_label
  _atom_site_symmetry_multiplicity
  _atom_site_fract_x
  _atom_site_fract_y
  _atom_site_fract_z
  _atom_site_occupancy
  Pr  Pr1       1.0  0.634910682681948  0.7955577857792377  0.9965885276906192  1.0000
  Pr  Pr2       1.0  0.0289598498493433  0.9728059433400631  0.7934205927886069  1.0000
  P   P1        1.0  0.9480986893177032  0.03667948581278324  0.176848154515028  1.0000
  P   P2        1.0  0.9265372976660728  0.036977410316467285  0.7975927349179983  1.0000
  H   H1        1.0  0.6764778317883611  0.020273083820939064  0.25526722765062004  1.0000
  H   H2        1.0  0.7320709386840463  0.5004363106563687  0.3660503551363945  1.0000
  H   H3        1.0  0.9595127590000629  0.6551907239481807  0.20700595993548632  1.0000
  H   H4        1.0  0.16730583552271128  0.5012153540737927  0.7882163778413087  1.0000
  H   H5        1.0  0.8163125328719616  0.6146867340430617  0.5583261970896274  1.0000
  H   H6        1.0  0.6624245876446366  0.5304712746292353  0.4958895146846771  1.0000
  H   H7        1.0  0.16678374563343823  0.5168340338859707  0.7105010859668255  1.0000
  H   H8        1.0  0.6422852361574769  0.1942736131604761  0.3566735931672156  1.0000
  H   H9        1.0  0.6116954307653941  0.9204216599464417  0.382161321118474  1.0000
  H   H10       1.0  0.05849200859665871  0.17381150275468826  0.03532387129962444  1.0000
  C   C1        1.0  0.06928107282146811  0.782460318878293  0.19856919976882637  1.0000
  C   C2        1.0  0.17464276659302413  0.8423031326383352  0.35991560493130237  1.0000
  O   O1        1.0  0.7106050439178944  0.6174000576138496  0.07082777842879295  1.0000
  O   O2        1.0  0.02455505123361945  0.11679191864095628  0.2334639903419884  1.0000
  O   O3        1.0  0.3274035777139943  0.668073834356619  0.7742129878024571  1.0000
  O   O4        1.0  0.8689882156904787  0.39164748624898493  0.6294631939381361  1.0000
  O   O5        1.0  0.526588334410917  0.27909907838329673  0.5589683363541553  1.0000
  O   O6        1.0  0.8014265967940446  0.8425101102329791  0.11683216958772391  1.0000
  O   O7        1.0  0.9717054942038885  0.2550940749255233  0.831655753798259  1.0000
  O   O8        1.0  0.4502339179161936  0.9165736436261795  0.48641856222820934  1.0000
  O   O9        1.0  0.5677783192368224  0.46675455779768527  0.1856415815418586  1.0000
  O   O10       1.0  0.5527397238183767  0.08837311837123707  0.414277828320337  1.0000
  O   O11       1.0  0.5181825417093933  0.5772229477079236  0.22462690549582476  1.0000
  O   O12       1.0  0.10846708016470075  0.8928188667632639  0.9182369428453967  1.0000
  O   O13       1.0  0.9833648590138182  0.369121644020197  0.4974699317244813  1.0000
  O   O14       1.0  0.23538252944126725  0.8093406860716641  0.44151739275548607  1.0000
data_image68
_chemical_formula_structural       Pr2P2H10C2O14
_chemical_formula_sum              "Pr2 P2 H10 C2 O14"
_cell_length_a       6.761788999999999
_cell_length_b       7.146483751908908
_cell_length_c       7.843598011864962
_cell_angle_alpha    110.54253585495134
_cell_angle_beta     95.79501476046597
_cell_angle_gamma    89.49575901902455

_space_group_name_H-M_alt    "P 1"
_space_group_IT_number       1

loop_
  _space_group_symop_operation_xyz
  'x, y, z'

loop_
  _atom_site_type_symbol
  _atom_site_label
  _atom_site_symmetry_multiplicity
  _atom_site_fract_x
  _atom_site_fract_y
  _atom_site_fract_z
  _atom_site_occupancy
  Pr  Pr1       1.0  0.871157884132117  0.45250245183706284  0.8370932450052351  1.0000
  Pr  Pr2       1.0  0.6723140580579638  0.5690503418445587  0.3147764424793422  1.0000
  P   P1        1.0  0.07972384989261627  0.7725109681487083  0.5444302130490541  1.0000
  P   P2        1.0  0.9570672512054443  0.7209583669900894  0.2339345496147871  1.0000
  H   H1        1.0  0.30475777480751276  0.7833435460925102  0.6245819058967754  1.0000
  H   H2        1.0  0.6073633702471852  0.1423872085288167  0.6902221329510212  1.0000
  H   H3        1.0  0.22980237868614495  0.7419884405098855  0.3146894443780184  1.0000
  H   H4        1.0  0.16839194856584072  0.8879467337392271  0.4036574827041477  1.0000
  H   H5        1.0  0.9881360149011016  0.4049078227253631  0.33789535658434033  1.0000
  H   H6        1.0  0.13663295190781355  0.5148601997643709  0.3379917945712805  1.0000
  H   H7        1.0  0.5905267652124166  0.44083840562961996  0.328374192584306  1.0000
  H   H8        1.0  0.8315052846446633  0.11712273210287094  0.3134950352832675  1.0000
  H   H9        1.0  0.0996356817195192  0.700245438143611  0.8332953564822674  1.0000
  H   H10       1.0  0.6898139305412769  0.44487594068050385  0.5743864309042692  1.0000
  C   C1        1.0  0.28660589549690485  0.048417978920042515  0.0736340289004147  1.0000
  C   C2        1.0  0.6355582568794489  0.02358657610602677  0.46254179696552455  1.0000
  O   O1        1.0  0.7907548998482525  0.1615167260169983  0.3605766147375107  1.0000
  O   O2        1.0  0.024295082315802574  0.4541029669344425  0.6918249915033812  1.0000
  O   O3        1.0  0.8249144126311876  0.9881143103411887  0.8545446915668435  1.0000
  O   O4        1.0  0.532397219678387  0.031210285844281316  0.76981854531914  1.0000
  O   O5        1.0  0.5908272974775173  0.029583544470369816  0.2236147439070919  1.0000
  O   O6        1.0  0.5342469975585118  0.721442881738767  0.21094446431379765  1.0000
  O   O7        1.0  0.9005605453749013  0.5839451027072755  0.20829813739692327  1.0000
  O   O8        1.0  0.5645878566429019  0.33225089829647914  0.9746004502703727  1.0000
  O   O9        1.0  0.41750746069010347  0.17785990494303405  0.8185198194114491  1.0000
  O   O10       1.0  0.8071154752979055  0.6668011485598981  0.6772623155338806  1.0000
  O   O11       1.0  0.9973049000836909  0.9210074074871955  0.3227857794117881  1.0000
  O   O12       1.0  0.25988001126097515  0.8200390841229819  0.6553979943564627  1.0000
  O   O13       1.0  0.04636878636665642  0.10221922733762767  0.25034786871401593  1.0000
  O   O14       1.0  0.4815811400767416  0.6942092096433043  0.9225006273481995  1.0000
data_image69
_chemical_formula_structural       Pr2P2H10C2O14
_chemical_formula_sum              "Pr2 P2 H10 C2 O14"
_cell_length_a       6.761788999999999
_cell_length_b       7.146483751908908
_cell_length_c       7.843598011864962
_cell_angle_alpha    110.54253585495134
_cell_angle_beta     95.79501476046597
_cell_angle_gamma    89.49575901902455

_space_group_name_H-M_alt    "P 1"
_space_group_IT_number       1

loop_
  _space_group_symop_operation_xyz
  'x, y, z'

loop_
  _atom_site_type_symbol
  _atom_site_label
  _atom_site_symmetry_multiplicity
  _atom_site_fract_x
  _atom_site_fract_y
  _atom_site_fract_z
  _atom_site_occupancy
  Pr  Pr1       1.0  0.42963003111071885  0.8594181966036558  0.8136091845808551  1.0000
  Pr  Pr2       1.0  0.7728863032534719  0.7630507238209248  0.1828665896318853  1.0000
  P   P1        1.0  0.869559109210968  0.6459569968283176  0.5402914583683014  1.0000
  P   P2        1.0  0.7447763979434967  0.9701680094003677  0.8809348680078983  1.0000
  H   H1        1.0  0.28785603400319815  0.3161527430638671  0.94937036302872  1.0000
  H   H2        1.0  0.019167494028806686  0.6771714575588703  0.45270003005862236  1.0000
  H   H3        1.0  0.06364780245348811  0.41077761631459  0.9519265610724688  1.0000
  H   H4        1.0  0.9275187784805894  0.008740341756492853  0.27362283831462264  1.0000
  H   H5        1.0  0.35459039360284805  0.6009705367032439  0.028232911601662636  1.0000
  H   H6        1.0  0.7064229333773255  0.6551992716267705  0.3414174299687147  1.0000
  H   H7        1.0  0.5016423473134637  0.06822068255860358  0.9283180637285113  1.0000
  H   H8        1.0  0.10110428370535374  0.7202031975612044  0.13259469531476498  1.0000
  H   H9        1.0  0.5207361315842718  0.725035797804594  0.47200399823486805  1.0000
  H   H10       1.0  0.7610767353326082  0.10933558642864227  0.5425197891891003  1.0000
  C   C1        1.0  0.5819061233196408  0.6105312807485461  0.045022050151601434  1.0000
  C   C2        1.0  0.5799404447898269  0.6483027120120823  0.5560452020145021  1.0000
  O   O1        1.0  0.20088410330936313  0.4452693685889244  0.6621274314820766  1.0000
  O   O2        1.0  0.9181446288712323  0.10166214173659682  0.2854360278142849  1.0000
  O   O3        1.0  0.4499684160691686  0.37224213636363856  0.4607510187779553  1.0000
  O   O4        1.0  0.7169704232364893  0.09804872749373317  0.8291752927470952  1.0000
  O   O5        1.0  0.37326065593515523  0.13313946104608476  0.3770104031473238  1.0000
  O   O6        1.0  0.6665250051009934  0.9621898338664323  0.543700841604732  1.0000
  O   O7        1.0  0.5345123891902404  0.033279353703164816  0.4460248135801521  1.0000
  O   O8        1.0  0.7563982526771724  0.31846698839217424  0.7485106120693672  1.0000
  O   O9        1.0  0.5502058968413621  0.6118738378863782  0.6259074598783627  1.0000
  O   O10       1.0  0.7851664695190266  0.34043585578911006  0.6399758752813796  1.0000
  O   O11       1.0  0.9719672075589187  0.7413523039867869  0.741971996420034  1.0000
  O   O12       1.0  0.7112475965041085  0.20733229361940175  0.34198161610402167  1.0000
  O   O13       1.0  0.07406331633683294  0.9236303350917296  0.1901318582240492  1.0000
  O   O14       1.0  0.7050663074478507  0.7992109331535175  0.32544148329179734  1.0000
data_image70
_chemical_formula_structural       Pr2P2H10C2O14
_chemical_formula_sum              "Pr2 P2 H10 C2 O14"
_cell_length_a       6.761788999999999
_cell_length_b       7.146483751908908
_cell_length_c       7.843598011864962
_cell_angle_alpha    110.54253585495134
_cell_angle_beta     95.79501476046597
_cell_angle_gamma    89.49575901902455

_space_group_name_H-M_alt    "P 1"
_space_group_IT_number       1

loop_
  _space_group_symop_operation_xyz
  'x, y, z'

loop_
  _atom_site_type_symbol
  _atom_site_label
  _atom_site_symmetry_multiplicity
  _atom_site_fract_x
  _atom_site_fract_y
  _atom_site_fract_z
  _atom_site_occupancy
  Pr  Pr1       1.0  0.9854565325658768  0.20951325446367264  0.8876923739444464  1.0000
  Pr  Pr2       1.0  0.3751483475789428  0.9567970596253872  0.006818355061113834  1.0000
  P   P1        1.0  0.8241231553256512  0.0349621307104826  0.9791718032211065  1.0000
  P   P2        1.0  0.5949693992733955  0.36538001894950867  0.4428316745907068  1.0000
  H   H1        1.0  0.8076408812776208  0.33364951703697443  0.10793960327282548  1.0000
  H   H2        1.0  0.34665000066161156  0.6765360049903393  0.9878094233572483  1.0000
  H   H3        1.0  0.7760005188174546  0.6782743437215686  0.424757894128561  1.0000
  H   H4        1.0  0.3711508456617594  0.35946154687553644  0.2437779886968201  1.0000
  H   H5        1.0  0.9638618100434542  0.7132590558612719  0.6854142544325441  1.0000
  H   H6        1.0  0.2246223483234644  0.1511876992881298  0.7402502093464136  1.0000
  H   H7        1.0  0.6785860685631633  0.6735210894839838  0.06084133265540004  1.0000
  H   H8        1.0  0.892788358964026  0.37813988304696977  0.3904360425658524  1.0000
  H   H9        1.0  0.9037905214354396  0.6967113092541695  0.41994029376655817  1.0000
  H   H10       1.0  0.25384599529206753  0.5442185625433922  0.4160840008407831  1.0000
  C   C1        1.0  0.985060719307512  0.46803334821015596  0.02064062957651913  1.0000
  C   C2        1.0  0.4576566335745156  0.7244355503935367  0.12201542855473235  1.0000
  O   O1        1.0  0.8987301187589765  0.41517662815749645  0.7363224923610687  1.0000
  O   O2        1.0  0.9510829346254468  0.6722989757545292  0.7266989760828437  1.0000
  O   O3        1.0  0.4575238932739012  0.02996066931518726  0.7253141272231005  1.0000
  O   O4        1.0  0.3557626681867987  0.3497648413758725  0.9365745396353304  1.0000
  O   O5        1.0  0.38159511584672146  0.3889639659319073  0.0979762008578291  1.0000
  O   O6        1.0  0.475569056434324  0.19304612488485873  0.7056066845543683  1.0000
  O   O7        1.0  0.4844116260755982  0.15302089914985118  0.9117478168045636  1.0000
  O   O8        1.0  0.11805276002269238  0.6750787738128565  0.5431246096341056  1.0000
  O   O9        1.0  0.7359175864839926  0.19362624222412705  0.041860113269649446  1.0000
  O   O10       1.0  0.3519921888364479  0.33355694415513426  0.923953286743199  1.0000
  O   O11       1.0  0.850321886013262  0.8335397329501575  0.9609589151514228  1.0000
  O   O12       1.0  0.750803460185125  0.46640134771587327  0.8135581265378278  1.0000
  O   O13       1.0  0.8381780702620745  0.4971232581010554  0.625829313416034  1.0000
  O   O14       1.0  0.80183005775325  0.5998887948226184  0.13390939601231366  1.0000
data_image71
_chemical_formula_structural       Pr2P2H10C2O14
_chemical_formula_sum              "Pr2 P2 H10 C2 O14"
_cell_length_a       6.761788999999999
_cell_length_b       7.146483751908908
_cell_length_c       7.843598011864962
_cell_angle_alpha    110.54253585495134
_cell_angle_beta     95.79501476046597
_cell_angle_gamma    89.49575901902455

_space_group_name_H-M_alt    "P 1"
_space_group_IT_number       1

loop_
  _space_group_symop_operation_xyz
  'x, y, z'

loop_
  _atom_site_type_symbol
  _atom_site_label
  _atom_site_symmetry_multiplicity
  _atom_site_fract_x
  _atom_site_fract_y
  _atom_site_fract_z
  _atom_site_occupancy
  Pr  Pr1       1.0  0.17298187012784183  0.7719069421291351  0.01224421919323504  1.0000
  Pr  Pr2       1.0  0.9560601422563195  0.7820756435394287  0.33758644200861454  1.0000
  P   P1        1.0  0.7590636312961578  0.17814525961875916  0.782755920663476  1.0000
  P   P2        1.0  0.5519263744354248  0.050479456782341  0.7938889395445585  1.0000
  H   H1        1.0  0.4651130177080631  0.5081183845177293  0.6480911648832262  1.0000
  H   H2        1.0  0.44877647515386343  0.0045632487162947655  0.7198883816599846  1.0000
  H   H3        1.0  0.1420592120848596  0.7371459072455764  0.4505021218210459  1.0000
  H   H4        1.0  0.4543901151046157  0.0651839985512197  0.9027164275757968  1.0000
  H   H5        1.0  0.5594491437077522  0.453753950772807  0.8306985525414348  1.0000
  H   H6        1.0  0.936977413482964  0.2346827881410718  0.449896153062582  1.0000
  H   H7        1.0  0.39971303893253207  0.4030636876123026  0.7478313082829118  1.0000
  H   H8        1.0  0.9704866595566273  0.6370962094515562  0.7848863387480378  1.0000
  H   H9        1.0  0.6988493306562304  0.9192300848662853  0.6775193065404892  1.0000
  H   H10       1.0  0.7494539115577936  0.8327649347484112  0.16850918717682362  1.0000
  C   C1        1.0  0.7897378588095307  0.7931342143565416  0.0438392055220902  1.0000
  C   C2        1.0  0.20793327130377293  0.8419005014002323  0.2798817886505276  1.0000
  O   O1        1.0  0.3799767573364079  0.41859757900238037  0.5635056160390377  1.0000
  O   O2        1.0  0.012832408305257559  0.6752683019731194  0.15660773846320808  1.0000
  O   O3        1.0  0.38051348220324144  0.7020864522673946  0.3770636601257138  1.0000
  O   O4        1.0  0.791175227612257  0.4813467946369201  0.8247134354896843  1.0000
  O   O5        1.0  0.9438980875711422  0.9993344710674137  0.8905938159441575  1.0000
  O   O6        1.0  0.09630997557542287  0.665578956482932  0.8518374093691818  1.0000
  O   O7        1.0  0.8230597506626509  0.05671451592934318  0.9756567050062586  1.0000
  O   O8        1.0  0.24872539716307074  0.4886754866456613  0.6190603457725956  1.0000
  O   O9        1.0  0.3483263378730044  0.6843717556912452  0.7309643569169566  1.0000
  O   O10       1.0  0.5737119000405073  0.8352459396701306  0.44277194854657864  1.0000
  O   O11       1.0  0.7850559919606894  0.9908358487446094  0.6696656419662759  1.0000
  O   O12       1.0  0.024252721479570027  0.13352082995697856  0.7322766837896779  1.0000
  O   O13       1.0  0.1395562085090205  0.5531722856831038  0.8085589655674994  1.0000
  O   O14       1.0  0.25120096490718424  0.1709640696644783  0.3308185680070892  1.0000
data_image72
_chemical_formula_structural       Pr2P2H10C2O14
_chemical_formula_sum              "Pr2 P2 H10 C2 O14"
_cell_length_a       6.761788999999999
_cell_length_b       7.146483751908908
_cell_length_c       7.843598011864962
_cell_angle_alpha    110.54253585495134
_cell_angle_beta     95.79501476046597
_cell_angle_gamma    89.49575901902455

_space_group_name_H-M_alt    "P 1"
_space_group_IT_number       1

loop_
  _space_group_symop_operation_xyz
  'x, y, z'

loop_
  _atom_site_type_symbol
  _atom_site_label
  _atom_site_symmetry_multiplicity
  _atom_site_fract_x
  _atom_site_fract_y
  _atom_site_fract_z
  _atom_site_occupancy
  Pr  Pr1       1.0  0.05833837832324207  0.5231168642640114  0.611154627171345  1.0000
  Pr  Pr2       1.0  0.24259024299681187  0.2484797015786171  0.6040054587647319  1.0000
  P   P1        1.0  0.7533703222870827  0.29393814504146576  0.42498860135674477  1.0000
  P   P2        1.0  0.4926496520638466  0.6315510272979736  0.14905068837106228  1.0000
  H   H1        1.0  0.39904724434018135  0.5061238305643201  0.34436379419639707  1.0000
  H   H2        1.0  0.12288305629044771  0.34278944693505764  0.9414522126317024  1.0000
  H   H3        1.0  0.16283081658184528  0.8482155473902822  0.6460608765482903  1.0000
  H   H4        1.0  0.10081727989017963  0.006830635014921427  0.9498136583715677  1.0000
  H   H5        1.0  0.13888954371213913  0.6525312813464552  0.05326889711432159  1.0000
  H   H6        1.0  0.14270005747675896  0.9233851144090295  0.3832489913329482  1.0000
  H   H7        1.0  0.9341729190200567  0.12360077898483723  0.22708520898595452  1.0000
  H   H8        1.0  0.8133294694125652  0.7419063416309655  0.5023514684289694  1.0000
  H   H9        1.0  0.412507054512389  0.4715771581977606  0.005168556235730648  1.0000
  H   H10       1.0  0.9948933757841587  0.5677198655903339  0.7095740344375372  1.0000
  C   C1        1.0  0.3622454679571092  0.06829433515667915  0.25651311222463846  1.0000
  C   C2        1.0  0.2815598037559539  0.7017326706554741  0.05374232470057905  1.0000
  O   O1        1.0  0.8106350190937519  0.899901432916522  0.051798559725284576  1.0000
  O   O2        1.0  0.9568320452235639  0.8577128460165113  0.4601013798674103  1.0000
  O   O3        1.0  0.9775319361360744  0.9624761358718388  0.9945749267353676  1.0000
  O   O4        1.0  0.3606902835890651  0.5716155506670475  0.7761573009192944  1.0000
  O   O5        1.0  0.2964999123068992  0.5050783993210644  0.7361062754443992  1.0000
  O   O6        1.0  0.09740399080328643  0.13518944336101413  0.6351234907633625  1.0000
  O   O7        1.0  0.5118922360707074  0.33985656408185605  0.7814045397972222  1.0000
  O   O8        1.0  0.14276339777279645  0.8355727471644059  0.9723885559506016  1.0000
  O   O9        1.0  0.4328341220971197  0.0026768010575324297  0.9420274150324985  1.0000
  O   O10       1.0  0.5228930392768234  0.49092859734082595  0.12555320071260212  1.0000
  O   O11       1.0  0.4303253173129633  0.26126589109480847  0.3589715707639698  1.0000
  O   O12       1.0  0.18779212559456937  0.397335558780469  0.5875543078145711  1.0000
  O   O13       1.0  0.018345249816775322  0.8524168915610062  0.981699405470863  1.0000
  O   O14       1.0  0.5741107875946909  0.1656154242809862  0.27751076442655176  1.0000
data_image73
_chemical_formula_structural       Pr2P2H10C2O14
_chemical_formula_sum              "Pr2 P2 H10 C2 O14"
_cell_length_a       6.761788999999999
_cell_length_b       7.146483751908908
_cell_length_c       7.843598011864962
_cell_angle_alpha    110.54253585495134
_cell_angle_beta     95.79501476046597
_cell_angle_gamma    89.49575901902455

_space_group_name_H-M_alt    "P 1"
_space_group_IT_number       1

loop_
  _space_group_symop_operation_xyz
  'x, y, z'

loop_
  _atom_site_type_symbol
  _atom_site_label
  _atom_site_symmetry_multiplicity
  _atom_site_fract_x
  _atom_site_fract_y
  _atom_site_fract_z
  _atom_site_occupancy
  Pr  Pr1       1.0  0.0073639885522425175  0.20002787746489048  0.07256259769201279  1.0000
  Pr  Pr2       1.0  0.5454514566808939  0.7865554764866829  0.17890544515103102  1.0000
  P   P1        1.0  0.9599423855543137  0.3164074644446373  0.3927219733595848  1.0000
  P   P2        1.0  0.7431646063923836  0.7151011973619461  0.2316183652728796  1.0000
  H   H1        1.0  0.48199981078505516  0.530362831428647  0.6830985236447304  1.0000
  H   H2        1.0  0.7323961267247796  0.3031877800822258  0.9820835404098034  1.0000
  H   H3        1.0  0.06350899301469326  0.3926319656893611  0.3040789933875203  1.0000
  H   H4        1.0  0.7522006146609783  0.6619640341959894  0.4393741550738923  1.0000
  H   H5        1.0  0.2903267564252019  0.2771224627504125  0.5606914074160159  1.0000
  H   H6        1.0  0.6151906494051218  0.9164162036031485  0.8141779825091362  1.0000
  H   H7        1.0  0.44932167092338204  0.4415409401990473  0.4390508225187659  1.0000
  H   H8        1.0  0.7434489000588655  0.8029259005561471  0.11315099149942398  1.0000
  H   H9        1.0  0.17699836276005954  0.3907168600708246  0.27237004321068525  1.0000
  H   H10       1.0  0.3308676704764366  0.23449768126010895  0.4283643811941147  1.0000
  C   C1        1.0  0.35666047665290534  0.19145421590656042  0.9044887295458466  1.0000
  C   C2        1.0  0.5222337269224226  0.2625591701362282  0.8394538488937542  1.0000
  O   O1        1.0  0.869602704886347  0.07347915135324001  0.5692113488912582  1.0000
  O   O2        1.0  0.8666647635400295  0.617867743363604  0.04701335111167282  1.0000
  O   O3        1.0  0.7987045824993402  0.7716104026621906  0.9524657182628289  1.0000
  O   O4        1.0  0.8870462821796536  0.7497547771781683  0.6057950453832746  1.0000
  O   O5        1.0  0.02951101615326479  0.09898168407380581  0.19688493714420474  1.0000
  O   O6        1.0  0.9572321401792578  0.45305066858418286  0.9680390295106918  1.0000
  O   O7        1.0  0.11875281110405922  0.6617479373380775  0.7466441881260835  1.0000
  O   O8        1.0  0.004164111916907132  0.03886151232291013  0.939067857209011  1.0000
  O   O9        1.0  0.09996826085262  0.914148807991296  0.6198981499765068  1.0000
  O   O10       1.0  0.4924653440248221  0.47725824848748744  0.8270520542209852  1.0000
  O   O11       1.0  0.6194538400741294  0.08495589125959668  0.9904956498648971  1.0000
  O   O12       1.0  0.5790681681610295  0.37227055459516123  0.4466898387327092  1.0000
  O   O13       1.0  0.847918604966253  0.9449549897835823  0.82941774581559  1.0000
  O   O14       1.0  0.5132261295802891  0.36453305080067366  0.3636438831454143  1.0000
data_image74
_chemical_formula_structural       Pr2P2H10C2O14
_chemical_formula_sum              "Pr2 P2 H10 C2 O14"
_cell_length_a       6.761788999999999
_cell_length_b       7.146483751908908
_cell_length_c       7.843598011864962
_cell_angle_alpha    110.54253585495134
_cell_angle_beta     95.79501476046597
_cell_angle_gamma    89.49575901902455

_space_group_name_H-M_alt    "P 1"
_space_group_IT_number       1

loop_
  _space_group_symop_operation_xyz
  'x, y, z'

loop_
  _atom_site_type_symbol
  _atom_site_label
  _atom_site_symmetry_multiplicity
  _atom_site_fract_x
  _atom_site_fract_y
  _atom_site_fract_z
  _atom_site_occupancy
  Pr  Pr1       1.0  0.675525524886325  0.09213233925402164  0.7382363191572949  1.0000
  Pr  Pr2       1.0  0.8956854930147529  0.18816039711236954  0.04270374635234475  1.0000
  P   P1        1.0  0.24308635294437408  0.584309633821249  0.5568123199045658  1.0000
  P   P2        1.0  0.6197723224759102  0.1543966829776764  0.27505345828831196  1.0000
  H   H1        1.0  0.5901365000754595  0.8984772693365812  0.4122822971548885  1.0000
  H   H2        1.0  0.41845600958913565  0.363446737639606  0.32882801070809364  1.0000
  H   H3        1.0  0.5067798513919115  0.5928777512162924  0.5931300446391106  1.0000
  H   H4        1.0  0.05956487637013197  0.7639956092461944  0.12756423972314224  1.0000
  H   H5        1.0  0.6749781426042318  0.07588941149879247  0.8233731354121119  1.0000
  H   H6        1.0  0.18989348132163286  0.8886768911033869  0.7983448011800647  1.0000
  H   H7        1.0  0.2442970797419548  0.12878903758246452  0.19015314290300012  1.0000
  H   H8        1.0  0.5154178850352764  0.5516259102150798  0.3448828822001815  1.0000
  H   H9        1.0  0.88191942719277  0.4619218073785305  0.6440873676910996  1.0000
  H   H10       1.0  0.0482269823551178  0.7301329635083675  0.5304557643830776  1.0000
  C   C1        1.0  0.2971007567830384  0.14897342585027218  0.6525276207830757  1.0000
  C   C2        1.0  0.0762866890290752  0.8742379159666598  0.6267069046152756  1.0000
  O   O1        1.0  0.8080755793489516  0.9286885019391775  0.4005838856101036  1.0000
  O   O2        1.0  0.2620087512768805  0.6402083719149232  0.8102001476509031  1.0000
  O   O3        1.0  0.3601787013467401  0.3697683459176915  0.3735732138156891  1.0000
  O   O4        1.0  0.8827790152281523  0.6905127670615911  0.28005691710859537  1.0000
  O   O5        1.0  0.08306349883787334  0.722247154219076  0.32603249547901214  1.0000
  O   O6        1.0  0.7708491520606913  0.5323737105354667  0.17676858871709555  1.0000
  O   O7        1.0  0.5954684081953019  0.8045795606449246  0.48862760979682207  1.0000
  O   O8        1.0  0.8071873839944601  0.7036365912063047  0.9590560371143511  1.0000
  O   O9        1.0  0.21203133719973266  0.2420910787768662  0.408560449257493  1.0000
  O   O10       1.0  0.5413274497259408  0.6980126001290046  0.21261599120043684  1.0000
  O   O11       1.0  0.8573734201490879  0.6768533863069024  0.5423013430845458  1.0000
  O   O12       1.0  0.6377412980582449  0.24086912284838036  0.5801851817668648  1.0000
  O   O13       1.0  0.3630489045754075  0.6424331649322994  0.8966097119264305  1.0000
  O   O14       1.0  0.7126015378162265  0.13013768661767244  0.8832332057645544  1.0000
data_image75
_chemical_formula_structural       Pr2P2H10C2O14
_chemical_formula_sum              "Pr2 P2 H10 C2 O14"
_cell_length_a       6.761788999999999
_cell_length_b       7.146483751908908
_cell_length_c       7.843598011864962
_cell_angle_alpha    110.54253585495134
_cell_angle_beta     95.79501476046597
_cell_angle_gamma    89.49575901902455

_space_group_name_H-M_alt    "P 1"
_space_group_IT_number       1

loop_
  _space_group_symop_operation_xyz
  'x, y, z'

loop_
  _atom_site_type_symbol
  _atom_site_label
  _atom_site_symmetry_multiplicity
  _atom_site_fract_x
  _atom_site_fract_y
  _atom_site_fract_z
  _atom_site_occupancy
  Pr  Pr1       1.0  0.6664634142071009  0.29106440022587776  0.9915505497483537  1.0000
  Pr  Pr2       1.0  0.8362789265811443  0.3281087726354599  0.13453550077974796  1.0000
  P   P1        1.0  0.8370107561349869  0.798857394605875  0.619089275598526  1.0000
  P   P2        1.0  0.46331629902124405  0.30056755244731903  0.8906122613698244  1.0000
  H   H1        1.0  0.2423318801447749  0.6769406292587519  0.5210505479481071  1.0000
  H   H2        1.0  0.09971920773386955  0.8900842806324363  0.47849246859550476  1.0000
  H   H3        1.0  0.04409593576565385  0.2294960906729102  0.5455949138849974  1.0000
  H   H4        1.0  0.5256018480286002  0.4358997782692313  0.5105626761214808  1.0000
  H   H5        1.0  0.45263834577053785  0.5144260723609477  0.9286779402755201  1.0000
  H   H6        1.0  0.7890976015478373  0.13031191378831863  0.9290647907182574  1.0000
  H   H7        1.0  0.6509204679168761  0.06779362971428782  0.29962561558932066  1.0000
  H   H8        1.0  0.49829018115997314  0.07896792236715555  0.9844858273863792  1.0000
  H   H9        1.0  0.06931461219210178  0.5749466568231583  0.2084737392142415  1.0000
  H   H10       1.0  0.9180551934987307  0.4853951074182987  0.595385355874896  1.0000
  C   C1        1.0  0.0027410024777054787  0.23105931654572487  0.32602247036993504  1.0000
  C   C2        1.0  0.26561681739985943  0.8643739928957075  0.04467143735382706  1.0000
  O   O1        1.0  0.46353260008618236  0.5804892051964998  0.9851138927042484  1.0000
  O   O2        1.0  0.7672488521784544  0.9182609932031482  0.13457357580773532  1.0000
  O   O3        1.0  0.1793797395657748  0.5222271420352627  0.3787937016459182  1.0000
  O   O4        1.0  0.0242454893887043  0.5271054517943412  0.3787853163667023  1.0000
  O   O5        1.0  0.21689390670508146  0.5302358656190336  0.6755564988416154  1.0000
  O   O6        1.0  0.7761970880674198  0.3427105937153101  0.08840497583150864  1.0000
  O   O7        1.0  0.5720013445243239  0.562015525996685  0.3789483980508521  1.0000
  O   O8        1.0  0.19370924297254533  0.9594851511064917  0.5287777852354338  1.0000
  O   O9        1.0  0.8179603453027084  0.6019864128902555  0.5519871592987329  1.0000
  O   O10       1.0  0.6935785758541897  0.8975693482207134  0.4621164631971624  1.0000
  O   O11       1.0  0.933528907073196  0.5352638011390809  0.9116133739007637  1.0000
  O   O12       1.0  0.2875549441196199  0.7352512514335103  0.08804145356407389  1.0000
  O   O13       1.0  0.839757741894573  0.9246866094181314  0.697551341727376  1.0000
  O   O14       1.0  0.823825670639053  0.8780407309532166  0.11995203827973455  1.0000
data_image76
_chemical_formula_structural       Pr2P2H10C2O14
_chemical_formula_sum              "Pr2 P2 H10 C2 O14"
_cell_length_a       6.761788999999999
_cell_length_b       7.146483751908908
_cell_length_c       7.843598011864962
_cell_angle_alpha    110.54253585495134
_cell_angle_beta     95.79501476046597
_cell_angle_gamma    89.49575901902455

_space_group_name_H-M_alt    "P 1"
_space_group_IT_number       1

loop_
  _space_group_symop_operation_xyz
  'x, y, z'

loop_
  _atom_site_type_symbol
  _atom_site_label
  _atom_site_symmetry_multiplicity
  _atom_site_fract_x
  _atom_site_fract_y
  _atom_site_fract_z
  _atom_site_occupancy
  Pr  Pr1       1.0  0.024793884251266718  0.6371690556406975  0.37726671423297375  1.0000
  Pr  Pr2       1.0  0.5136477574706078  0.8165150880813599  0.45834038173779845  1.0000
  P   P1        1.0  0.7056232988834381  0.5880346707999706  0.630139397457242  1.0000
  P   P2        1.0  0.416153185069561  0.8082752078771591  0.738387368619442  1.0000
  H   H1        1.0  0.058728170581161976  0.3722120998427272  0.9403625470586121  1.0000
  H   H2        1.0  0.5395328141748905  0.9862072039395571  0.3427184335887432  1.0000
  H   H3        1.0  0.6423658863641322  0.7644843934103847  0.805209232494235  1.0000
  H   H4        1.0  0.9950938057154417  0.8895348045043647  0.13927252529538237  1.0000
  H   H5        1.0  0.28613373544067144  0.5457949629053473  0.04071933403611183  1.0000
  H   H6        1.0  0.5564108993858099  0.8338750004768372  0.3928376929834485  1.0000
  H   H7        1.0  0.9134345869533718  0.6022897628135979  0.15450617531314492  1.0000
  H   H8        1.0  0.2488344982266426  0.30413230042904615  0.5606275498867035  1.0000
  H   H9        1.0  0.9587995387846604  0.9968883991241455  0.7394484113901854  1.0000
  H   H10       1.0  0.3129197098314762  0.40873998031020164  0.9080137629061937  1.0000
  C   C1        1.0  0.04423809936270118  0.547984192147851  0.8088776427321136  1.0000
  C   C2        1.0  0.13798500632401556  0.43917205231264234  0.02578636893304065  1.0000
  O   O1        1.0  0.0028179087676107883  0.3412823770195246  0.10112346708774567  1.0000
  O   O2        1.0  0.685453662648797  0.06771210045553744  0.5787715459009632  1.0000
  O   O3        1.0  0.1588946640258655  0.8824732349894475  0.7829508078866638  1.0000
  O   O4        1.0  0.19569359766319394  0.26328167389146984  0.19938839320093393  1.0000
  O   O5        1.0  0.2773371422663331  0.18905342929065228  0.32718489315448096  1.0000
  O   O6        1.0  0.07195089108427055  0.6425619951914996  0.12869142653653398  1.0000
  O   O7        1.0  0.9808355201967061  0.3360813823528588  0.9364436361938715  1.0000
  O   O8        1.0  0.5522183434804901  0.8598706555785611  0.26344935412635095  1.0000
  O   O9        1.0  0.05206749262288213  0.20205975882709026  0.8135598568478599  1.0000
  O   O10       1.0  0.9877374296775088  0.619450835743919  0.8354601146129426  1.0000
  O   O11       1.0  0.6595970697235316  0.48075914962100796  0.48875945288455114  1.0000
  O   O12       1.0  0.5475916090999817  0.13782152719795704  0.2795959506329382  1.0000
  O   O13       1.0  0.25901725329458714  0.05624767462722957  0.07898408896289766  1.0000
  O   O14       1.0  0.4289166796952486  0.044872975908219814  0.7304540027398616  1.0000
data_image77
_chemical_formula_structural       Pr2P2H10C2O14
_chemical_formula_sum              "Pr2 P2 H10 C2 O14"
_cell_length_a       6.761788999999999
_cell_length_b       7.146483751908908
_cell_length_c       7.843598011864962
_cell_angle_alpha    110.54253585495134
_cell_angle_beta     95.79501476046597
_cell_angle_gamma    89.49575901902455

_space_group_name_H-M_alt    "P 1"
_space_group_IT_number       1

loop_
  _space_group_symop_operation_xyz
  'x, y, z'

loop_
  _atom_site_type_symbol
  _atom_site_label
  _atom_site_symmetry_multiplicity
  _atom_site_fract_x
  _atom_site_fract_y
  _atom_site_fract_z
  _atom_site_occupancy
  Pr  Pr1       1.0  0.4538862982299179  0.18680205941200256  0.7898298534564674  1.0000
  Pr  Pr2       1.0  0.8693320732563734  0.1962663233280182  0.023319591768085957  1.0000
  P   P1        1.0  0.6224718801677227  0.8291937373578548  0.18240496888756752  1.0000
  P   P2        1.0  0.6902831420302391  0.20898067951202393  0.29715416207909584  1.0000
  H   H1        1.0  0.6560924462974072  0.8116589020937681  0.30538576608523726  1.0000
  H   H2        1.0  0.09100513998419046  0.7989040343090892  0.372664500027895  1.0000
  H   H3        1.0  0.10792035236954689  0.2960900440812111  0.2251620488241315  1.0000
  H   H4        1.0  0.4117082189768553  0.5578701393678784  0.629873418918578  1.0000
  H   H5        1.0  0.07731083407998085  0.17078262567520142  0.6510592680424452  1.0000
  H   H6        1.0  0.8404455780982971  0.13051560800522566  0.1275972919538617  1.0000
  H   H7        1.0  0.2593572302721441  0.7051861312938854  0.42220050003379583  1.0000
  H   H8        1.0  0.7134531401097775  0.0678313560783863  0.8659376539289951  1.0000
  H   H9        1.0  0.33025242993608117  0.9186439402401447  0.6730747921392322  1.0000
  H   H10       1.0  0.559579398483038  0.7383474484086037  0.1599033623933792  1.0000
  C   C1        1.0  0.5598955773748457  0.7998206373304129  0.2771714557893574  1.0000
  C   C2        1.0  0.6869923695921898  0.15595915773883462  0.9436266829725355  1.0000
  O   O1        1.0  0.5046419212594628  0.9537077285349369  0.8475565798580647  1.0000
  O   O2        1.0  0.352401630487293  0.9453272947575897  0.10193890015943907  1.0000
  O   O3        1.0  0.2100903264945373  0.44927207875298336  0.16268616210436448  1.0000
  O   O4        1.0  0.9789315736852586  0.324393603252247  0.7153114853426814  1.0000
  O   O5        1.0  0.6655216693761759  0.25530235399492085  0.7328356450016145  1.0000
  O   O6        1.0  0.5544207416824065  0.056206596782431006  0.9743121691863053  1.0000
  O   O7        1.0  0.7409700434654951  0.012374994810670614  0.7276377079542726  1.0000
  O   O8        1.0  0.2256897697225213  0.9877073308452964  0.15220695094467374  1.0000
  O   O9        1.0  0.7832384769571945  0.010003207018598914  0.5341347731882706  1.0000
  O   O10       1.0  0.5601862670155242  0.3311021982226521  0.690415794873843  1.0000
  O   O11       1.0  0.13109741098014638  0.17725707206409425  0.3779826656973455  1.0000
  O   O12       1.0  0.22135928258285276  0.7506610463606194  0.34505444376554806  1.0000
  O   O13       1.0  0.8149368818849325  0.6263805869966745  0.6549295906443149  1.0000
  O   O14       1.0  0.7219454352743924  0.945851577911526  0.3400789925362915  1.0000
data_image78
_chemical_formula_structural       Pr2P2H10C2O14
_chemical_formula_sum              "Pr2 P2 H10 C2 O14"
_cell_length_a       6.761788999999999
_cell_length_b       7.146483751908908
_cell_length_c       7.843598011864962
_cell_angle_alpha    110.54253585495134
_cell_angle_beta     95.79501476046597
_cell_angle_gamma    89.49575901902455

_space_group_name_H-M_alt    "P 1"
_space_group_IT_number       1

loop_
  _space_group_symop_operation_xyz
  'x, y, z'

loop_
  _atom_site_type_symbol
  _atom_site_label
  _atom_site_symmetry_multiplicity
  _atom_site_fract_x
  _atom_site_fract_y
  _atom_site_fract_z
  _atom_site_occupancy
  Pr  Pr1       1.0  0.8317879536189139  0.1708519347012043  0.22855235170572996  1.0000
  Pr  Pr2       1.0  0.21927161887288094  0.5408337973058224  0.4697737521491945  1.0000
  P   P1        1.0  0.4224460609257221  0.535331130027771  0.12686408311128616  1.0000
  P   P2        1.0  0.23857752978801727  0.8157491981983185  0.43006566539406776  1.0000
  H   H1        1.0  0.7493519652634859  0.43572035524994135  0.4256549399578944  1.0000
  H   H2        1.0  0.46526783984154463  0.4279751693829894  0.0836280956864357  1.0000
  H   H3        1.0  0.5291567076928914  0.11123208608478308  0.8087254855781794  1.0000
  H   H4        1.0  0.5434708259999752  0.9471496320329607  0.7324562554713339  1.0000
  H   H5        1.0  0.33032519929111004  0.6915934442076832  0.963975204853341  1.0000
  H   H6        1.0  0.7492464799433947  0.019793923944234848  0.95941804908216  1.0000
  H   H7        1.0  0.9768614936619997  0.6414652741514146  0.3285011542029679  1.0000
  H   H8        1.0  0.01188521459698677  0.6921195732429624  0.8924344098195434  1.0000
  H   H9        1.0  0.15193080413155258  0.23282461427152157  0.8287332486361265  1.0000
  H   H10       1.0  0.22120381705462933  0.0684523954987526  0.399821188300848  1.0000
  C   C1        1.0  0.6267690975219011  0.5479130949825048  0.8940382436849177  1.0000
  C   C2        1.0  0.6668557822704315  0.8097371128387749  0.9680003342800774  1.0000
  O   O1        1.0  0.14463632879778743  0.8447260726243258  0.30165817961096764  1.0000
  O   O2        1.0  0.031701463740319014  0.8225865443237126  0.5335267988266423  1.0000
  O   O3        1.0  0.4210220818640664  0.4105812734051142  0.03256884415168315  1.0000
  O   O4        1.0  0.6813102709129453  0.5262835244648159  0.41712487232871354  1.0000
  O   O5        1.0  0.2291236463934183  0.8177712578326464  0.2645852063142229  1.0000
  O   O6        1.0  0.009435726737137884  0.526460244320333  0.6766105801216327  1.0000
  O   O7        1.0  0.07310735760256648  0.06037005363032222  0.7102685559075326  1.0000
  O   O8        1.0  0.8346364772878587  0.27337172941770405  0.32353623085509753  1.0000
  O   O9        1.0  0.5049647786654532  0.5939048011787236  0.3161654502619058  1.0000
  O   O10       1.0  0.5405312894145027  0.17426734062610194  0.5664605247438885  1.0000
  O   O11       1.0  0.839614943950437  0.49393832139321603  0.7560002945829183  1.0000
  O   O12       1.0  0.47992212046301574  0.6872181457583793  0.21262549055973068  1.0000
  O   O13       1.0  0.5855534505099058  0.4730994636192918  0.8106635399162769  1.0000
  O   O14       1.0  0.435660554561764  0.4419663662556559  0.7011423790827394  1.0000
data_image79
_chemical_formula_structural       Pr2P2H10C2O14
_chemical_formula_sum              "Pr2 P2 H10 C2 O14"
_cell_length_a       6.761788999999999
_cell_length_b       7.146483751908908
_cell_length_c       7.843598011864962
_cell_angle_alpha    110.54253585495134
_cell_angle_beta     95.79501476046597
_cell_angle_gamma    89.49575901902455

_space_group_name_H-M_alt    "P 1"
_space_group_IT_number       1

loop_
  _space_group_symop_operation_xyz
  'x, y, z'

loop_
  _atom_site_type_symbol
  _atom_site_label
  _atom_site_symmetry_multiplicity
  _atom_site_fract_x
  _atom_site_fract_y
  _atom_site_fract_z
  _atom_site_occupancy
  Pr  Pr1       1.0  0.05531147192232311  0.6569556407630444  0.7206614507595077  1.0000
  Pr  Pr2       1.0  0.1873498447239399  0.1262195222079754  0.668865580111742  1.0000
  P   P1        1.0  0.1430005021393299  0.714717335999012  0.5318352319300175  1.0000
  P   P2        1.0  0.3403659984469414  0.8379655629396439  0.41083464212715626  1.0000
  H   H1        1.0  0.8720733094960451  0.1326025603339076  0.9724190859124064  1.0000
  H   H2        1.0  0.30635938234627247  0.0696297287940979  0.2202301099896431  1.0000
  H   H3        1.0  0.9528603879734874  0.40190599393099546  0.13108126167207956  1.0000
  H   H4        1.0  0.7082566739991307  0.03120141988620162  0.4808956950873835  1.0000
  H   H5        1.0  0.409370974637568  0.9479481179732829  0.7720953968819231  1.0000
  H   H6        1.0  0.754297879524529  0.6439348086714745  0.6220051925629377  1.0000
  H   H7        1.0  0.025924547109752893  0.5865446330280975  0.3313661958090961  1.0000
  H   H8        1.0  0.912177175283432  0.3125085337087512  0.2084225658327341  1.0000
  H   H9        1.0  0.6621437717694789  0.5150648429989815  0.1864712918177247  1.0000
  H   H10       1.0  0.6876291297376156  0.3109547384083271  0.11096671409904957  1.0000
  C   C1        1.0  0.04259145213291049  0.9735706448554993  0.8342624139040709  1.0000
  C   C2        1.0  0.7577581681543961  0.41764394869096577  0.2304329737671651  1.0000
  O   O1        1.0  0.5040842178277671  0.9710882417857647  0.7475326843559742  1.0000
  O   O2        1.0  0.7580560869537294  0.414165279828012  0.42090687579184305  1.0000
  O   O3        1.0  0.008209004066884518  0.28369962563738227  0.7853009663522243  1.0000
  O   O4        1.0  0.7416840763762593  0.060046879574656487  0.37001344794407487  1.0000
  O   O5        1.0  0.634351804445032  0.35083521110937  0.8279480622004485  1.0000
  O   O6        1.0  0.4246416325913742  0.9143393440172076  0.5956559471669607  1.0000
  O   O7        1.0  0.15150246303528547  0.28001693543046713  0.6478712558746338  1.0000
  O   O8        1.0  0.9075327650643885  0.7433131892466918  0.5262349445547443  1.0000
  O   O9        1.0  0.03855424909852445  0.02060829848051071  0.09782959043513983  1.0000
  O   O10       1.0  0.00715353072155267  0.8736534977797419  0.9917989853129257  1.0000
  O   O11       1.0  0.08510269655380398  0.3935316568095004  0.6048213241447229  1.0000
  O   O12       1.0  0.9572054834206938  0.8050922402180731  0.23662577509821858  1.0000
  O   O13       1.0  0.3990141348913312  0.5746338441967964  0.5543123136740178  1.0000
  O   O14       1.0  0.9816986208315939  0.4320410054642707  0.24542787729296833  1.0000
data_image80
_chemical_formula_structural       Pr2P2H10C2O14
_chemical_formula_sum              "Pr2 P2 H10 C2 O14"
_cell_length_a       6.761788999999999
_cell_length_b       7.146483751908908
_cell_length_c       7.843598011864962
_cell_angle_alpha    110.54253585495134
_cell_angle_beta     95.79501476046597
_cell_angle_gamma    89.49575901902455

_space_group_name_H-M_alt    "P 1"
_space_group_IT_number       1

loop_
  _space_group_symop_operation_xyz
  'x, y, z'

loop_
  _atom_site_type_symbol
  _atom_site_label
  _atom_site_symmetry_multiplicity
  _atom_site_fract_x
  _atom_site_fract_y
  _atom_site_fract_z
  _atom_site_occupancy
  Pr  Pr1       1.0  0.3916918467730284  0.14904061518609524  0.23231492121703923  1.0000
  Pr  Pr2       1.0  0.494485592469573  0.8796789832413197  0.3744995594024658  1.0000
  P   P1        1.0  0.1381349377334118  0.24882401153445244  0.9697125125676394  1.0000
  P   P2        1.0  0.17397744953632355  0.3548397421836853  0.7265314366668463  1.0000
  H   H1        1.0  0.3315566098317504  0.09903339110314846  0.3876121500506997  1.0000
  H   H2        1.0  0.09915092773735523  0.01431942731142044  0.5044574327766895  1.0000
  H   H3        1.0  0.8132088417187333  0.622085478156805  0.452556274831295  1.0000
  H   H4        1.0  0.28970381803810596  0.3819198841229081  0.6807063345622737  1.0000
  H   H5        1.0  0.027422582730650902  0.933534397976473  0.4833108920138329  1.0000
  H   H6        1.0  0.559649895876646  0.44743772223591805  0.35703569557517767  1.0000
  H   H7        1.0  0.21246362384408712  0.7328878008993343  0.6046050889417529  1.0000
  H   H8        1.0  0.3515895325690508  0.13624643720686436  0.3993190210312605  1.0000
  H   H9        1.0  0.20673072221688926  0.7940316163003445  0.3811240987852216  1.0000
  H   H10       1.0  0.734590308740735  0.6336679980158806  0.4125760830938816  1.0000
  C   C1        1.0  0.1507915025576949  0.9572350783273578  0.8378589407075197  1.0000
  C   C2        1.0  0.32015738112386316  0.17187373852357268  0.07460300927050412  1.0000
  O   O1        1.0  0.0027283933013677597  0.01924344338476658  0.3856952115893364  1.0000
  O   O2        1.0  0.929313903208822  0.6199819976463914  0.24986057620844804  1.0000
  O   O3        1.0  0.31527270725928247  0.6563454332281253  0.7888982865260914  1.0000
  O   O4        1.0  0.1021329122595489  0.401437025051564  0.543215264333412  1.0000
  O   O5        1.0  0.3812607051804662  0.3670949675142765  0.9967188835144043  1.0000
  O   O6        1.0  0.5806460451567546  0.7988376747816801  0.5076809145975858  1.0000
  O   O7        1.0  0.5111488741822541  0.42954030772671103  0.49114197050221264  1.0000
  O   O8        1.0  0.8093339295592159  0.5272719525964931  0.04046400553488638  1.0000
  O   O9        1.0  0.1474455064162612  0.24686025362461805  0.2303145758341998  1.0000
  O   O10       1.0  0.9438603727612644  0.8933263514772989  0.26174361928133294  1.0000
  O   O11       1.0  0.6387459615361877  0.09575103898532689  0.31595989703782834  1.0000
  O   O12       1.0  0.03886147031880682  0.3416658724891022  0.302177704666974  1.0000
  O   O13       1.0  0.061799148097634315  0.9353105844929814  0.5615393731277436  1.0000
  O   O14       1.0  0.8803226689342409  0.4908473981777206  0.17649519129190594  1.0000
data_image81
_chemical_formula_structural       Pr2P2H10C2O14
_chemical_formula_sum              "Pr2 P2 H10 C2 O14"
_cell_length_a       6.761788999999999
_cell_length_b       7.146483751908908
_cell_length_c       7.843598011864962
_cell_angle_alpha    110.54253585495134
_cell_angle_beta     95.79501476046597
_cell_angle_gamma    89.49575901902455

_space_group_name_H-M_alt    "P 1"
_space_group_IT_number       1

loop_
  _space_group_symop_operation_xyz
  'x, y, z'

loop_
  _atom_site_type_symbol
  _atom_site_label
  _atom_site_symmetry_multiplicity
  _atom_site_fract_x
  _atom_site_fract_y
  _atom_site_fract_z
  _atom_site_occupancy
  Pr  Pr1       1.0  0.5892970357090235  0.023591289296746254  0.9992949175648391  1.0000
  Pr  Pr2       1.0  0.9024192541837692  0.41470125690102577  0.43582514440640807  1.0000
  P   P1        1.0  0.9227018728852272  0.9179559797048569  0.16357320919632912  1.0000
  P   P2        1.0  0.700048103928566  0.5775838196277618  0.6672565788030624  1.0000
  H   H1        1.0  0.2318077152594924  0.2751732040196657  0.14460683322977275  1.0000
  H   H2        1.0  0.5648225117474794  0.9501803135499358  0.20850325748324394  1.0000
  H   H3        1.0  0.17363264178857207  0.8924086065962911  0.987508974969387  1.0000
  H   H4        1.0  0.23376578837633133  0.5395148042589426  0.045617126030265354  1.0000
  H   H5        1.0  0.423562103882432  0.21487029734998941  0.4509116616100073  1.0000
  H   H6        1.0  0.6707836454734206  0.02466710563749075  0.052913387306034565  1.0000
  H   H7        1.0  0.1633596015162766  0.386436372064054  0.9625042257830501  1.0000
  H   H8        1.0  0.9927902370691299  0.4189336923882365  0.6339438920840621  1.0000
  H   H9        1.0  0.25697635184042156  0.910876365378499  0.9457960054278374  1.0000
  H   H10       1.0  0.057386916130781174  0.9006950519979  0.9505200665444136  1.0000
  C   C1        1.0  0.65439741499722  0.019347711466252804  0.5037423609755933  1.0000
  C   C2        1.0  0.6056398561922833  0.9538194097112864  0.15830537804868072  1.0000
  O   O1        1.0  0.7466864227317274  0.8303385637700558  0.41098708659410477  1.0000
  O   O2        1.0  0.06699386611580849  0.37720080744475126  0.704575982541428  1.0000
  O   O3        1.0  0.715958803659305  0.39156193760209135  0.58442656788975  1.0000
  O   O4        1.0  0.416014495305717  0.012190015288069844  0.08641872485168278  1.0000
  O   O5        1.0  0.8307020419160835  0.7272572626825422  0.6507026576400676  1.0000
  O   O6        1.0  0.5571187483146787  0.49416501820087433  0.8988437391235493  1.0000
  O   O7        1.0  0.310436534229666  0.31085765128955245  0.7200796615798026  1.0000
  O   O8        1.0  0.34706919838208705  0.8297988116974011  0.6883678536760272  1.0000
  O   O9        1.0  0.9443364762701094  0.9770060232840478  0.5000705247512087  1.0000
  O   O10       1.0  0.12325139774475247  0.15339350164867938  0.6409029430360533  1.0000
  O   O11       1.0  0.3250659179757349  0.769731915963348  0.24540585893555544  1.0000
  O   O12       1.0  0.30099846301891375  0.4247989535215311  0.3777077302802354  1.0000
  O   O13       1.0  0.9735527178272605  0.07430741470307112  0.3335928793530911  1.0000
  O   O14       1.0  0.4901783559471369  0.8329630800290033  0.439101051306352  1.0000
data_image82
_chemical_formula_structural       Pr2P2H10C2O14
_chemical_formula_sum              "Pr2 P2 H10 C2 O14"
_cell_length_a       6.761788999999999
_cell_length_b       7.146483751908908
_cell_length_c       7.843598011864962
_cell_angle_alpha    110.54253585495134
_cell_angle_beta     95.79501476046597
_cell_angle_gamma    89.49575901902455

_space_group_name_H-M_alt    "P 1"
_space_group_IT_number       1

loop_
  _space_group_symop_operation_xyz
  'x, y, z'

loop_
  _atom_site_type_symbol
  _atom_site_label
  _atom_site_symmetry_multiplicity
  _atom_site_fract_x
  _atom_site_fract_y
  _atom_site_fract_z
  _atom_site_occupancy
  Pr  Pr1       1.0  0.22687520598992705  0.09827609173953533  0.34345531757571734  1.0000
  Pr  Pr2       1.0  0.6669616028666496  0.8145401515066624  0.23878932651132345  1.0000
  P   P1        1.0  0.5437295585870743  0.6327194552868605  0.8931512404233217  1.0000
  P   P2        1.0  0.857801079750061  0.09488455951213837  0.6423671245574951  1.0000
  H   H1        1.0  0.058517707511782646  0.4791920194402337  0.36121355707291514  1.0000
  H   H2        1.0  0.7314009722322226  0.1359329242259264  0.9094625115394592  1.0000
  H   H3        1.0  0.40088402293622494  0.2393001951277256  0.3828610582277179  1.0000
  H   H4        1.0  0.6468986123800278  0.5173802226781845  0.9307150068052579  1.0000
  H   H5        1.0  0.22539279516786337  0.13414946617558599  0.6101413387805223  1.0000
  H   H6        1.0  0.1334315687417984  0.35266683623194695  0.4924303665757179  1.0000
  H   H7        1.0  0.15264870505779982  0.21023557393345982  0.9722829586826265  1.0000
  H   H8        1.0  0.7644290290772915  0.14508976135402918  0.7169911861419678  1.0000
  H   H9        1.0  0.16050317720510066  0.28944786824285984  0.9463183339685202  1.0000
  H   H10       1.0  0.60990434512496  0.7706548608839512  0.6372377071529627  1.0000
  C   C1        1.0  0.340116907376796  0.8086167611181736  0.03509910311549902  1.0000
  C   C2        1.0  0.994693165179342  0.12294151308014989  0.2663936076860409  1.0000
  O   O1        1.0  0.9164796737022698  0.4609777592122555  0.6936134472489357  1.0000
  O   O2        1.0  0.004685009364038706  0.2043820614926517  0.07563210988882929  1.0000
  O   O3        1.0  0.6390213255072013  0.20996211771853268  0.3197036535711959  1.0000
  O   O4        1.0  0.06597320642322302  0.8688059302512556  0.8859949687030166  1.0000
  O   O5        1.0  0.6993449841975234  0.26460776780731976  0.04176118888062774  1.0000
  O   O6        1.0  0.2929307770100422  0.6128606328275055  0.8098744162125513  1.0000
  O   O7        1.0  0.7526298612356186  0.7172906342893839  0.8478022832423449  1.0000
  O   O8        1.0  0.8049784649629146  0.7183912293985486  0.23739120893878862  1.0000
  O   O9        1.0  0.8246253365650773  0.32248002337291837  0.2925530605716631  1.0000
  O   O10       1.0  0.8404757101088762  0.7647351596970111  0.8518988353025634  1.0000
  O   O11       1.0  0.37097540171816945  0.5312772034230875  0.2845405230182223  1.0000
  O   O12       1.0  0.3534414354071487  0.1502285996102728  0.8599667632370256  1.0000
  O   O13       1.0  0.5872046304866672  0.7293744382914156  0.721464941976592  1.0000
  O   O14       1.0  0.43619563104584813  0.5199417329858989  0.9837260037893429  1.0000
data_image83
_chemical_formula_structural       Pr2P2H10C2O14
_chemical_formula_sum              "Pr2 P2 H10 C2 O14"
_cell_length_a       6.761788999999999
_cell_length_b       7.146483751908908
_cell_length_c       7.843598011864962
_cell_angle_alpha    110.54253585495134
_cell_angle_beta     95.79501476046597
_cell_angle_gamma    89.49575901902455

_space_group_name_H-M_alt    "P 1"
_space_group_IT_number       1

loop_
  _space_group_symop_operation_xyz
  'x, y, z'

loop_
  _atom_site_type_symbol
  _atom_site_label
  _atom_site_symmetry_multiplicity
  _atom_site_fract_x
  _atom_site_fract_y
  _atom_site_fract_z
  _atom_site_occupancy
  Pr  Pr1       1.0  0.1426498801447451  0.026254761964082718  0.3397483956941869  1.0000
  Pr  Pr2       1.0  0.9219161733053625  0.864504799246788  0.5026677427813411  1.0000
  P   P1        1.0  0.46515538543462753  0.25576106552034616  0.1365964375436306  1.0000
  P   P2        1.0  0.6236482635140419  0.07846242189407349  0.7438229992985725  1.0000
  H   H1        1.0  0.22695604991167784  0.4494247268885374  0.944622719893232  1.0000
  H   H2        1.0  0.10051151551306248  0.7960078027099371  0.2553585544228554  1.0000
  H   H3        1.0  0.25884883664548397  0.009804822038859129  0.5892341614235193  1.0000
  H   H4        1.0  0.3458412941545248  0.4312344822101295  0.8005574074923061  1.0000
  H   H5        1.0  0.609252855181694  0.6646262910217047  0.91067277896218  1.0000
  H   H6        1.0  0.8686146140098572  0.07463615015149117  0.7814277801662683  1.0000
  H   H7        1.0  0.8044436061754823  0.5701129548251629  0.5981189627200365  1.0000
  H   H8        1.0  0.3438202738761902  0.6783502353355289  0.02210620022378862  1.0000
  H   H9        1.0  0.33975732466205955  0.1684543453156948  0.9981759283691645  1.0000
  H   H10       1.0  0.7470164019614458  0.8882796429097652  0.08478159829974174  1.0000
  C   C1        1.0  0.2403705264441669  0.8194964788854122  0.7822780704591423  1.0000
  C   C2        1.0  0.5409487434662879  0.8833895735442638  0.4042729212960694  1.0000
  O   O1        1.0  0.46520128939300776  0.7929415460675955  0.04896049574017525  1.0000
  O   O2        1.0  0.0006000306457281113  0.03631346323527396  0.07850683260767255  1.0000
  O   O3        1.0  0.8810840173391625  0.4285453010015772  0.24525124940555543  1.0000
  O   O4        1.0  0.4087029844522476  0.6828068795148283  0.23651082534343004  1.0000
  O   O5        1.0  0.975572966504842  0.6000853460282087  0.17754578712629154  1.0000
  O   O6        1.0  0.8909332673647441  0.5794990942813456  0.49455074104480445  1.0000
  O   O7        1.0  0.8915100833401084  0.25516204396262765  0.6149903393816203  1.0000
  O   O8        1.0  0.2629976065363735  0.9051641455153003  0.7357083025417523  1.0000
  O   O9        1.0  0.6047446632292122  0.30940764443948865  0.06737487320788205  1.0000
  O   O10       1.0  0.5860558642307296  0.4714117528637871  0.09553640210651793  1.0000
  O   O11       1.0  0.4377096295647789  0.6331289530207869  0.5798636846011505  1.0000
  O   O12       1.0  0.17464641731930897  0.3872855044901371  0.9920546046050731  1.0000
  O   O13       1.0  0.2765626786276698  0.3659180449321866  0.6733537411782891  1.0000
  O   O14       1.0  0.6244981696363539  0.4126696123275906  0.01413309111376293  1.0000
data_image84
_chemical_formula_structural       Pr2P2H10C2O14
_chemical_formula_sum              "Pr2 P2 H10 C2 O14"
_cell_length_a       6.761788999999999
_cell_length_b       7.146483751908908
_cell_length_c       7.843598011864962
_cell_angle_alpha    110.54253585495134
_cell_angle_beta     95.79501476046597
_cell_angle_gamma    89.49575901902455

_space_group_name_H-M_alt    "P 1"
_space_group_IT_number       1

loop_
  _space_group_symop_operation_xyz
  'x, y, z'

loop_
  _atom_site_type_symbol
  _atom_site_label
  _atom_site_symmetry_multiplicity
  _atom_site_fract_x
  _atom_site_fract_y
  _atom_site_fract_z
  _atom_site_occupancy
  Pr  Pr1       1.0  0.5530611798167229  0.11547218076884747  0.19658105089183664  1.0000
  Pr  Pr2       1.0  0.169518651207909  0.5790084637701511  0.27345546055585146  1.0000
  P   P1        1.0  0.3623397797346115  0.7880318551324308  0.010864796116948128  1.0000
  P   P2        1.0  0.7434272393584251  0.3797454833984375  0.7146696485579014  1.0000
  H   H1        1.0  0.6453723525628448  0.9027220448479056  0.5867745869327337  1.0000
  H   H2        1.0  0.7020891094580293  0.8102643489837646  0.9889261424541473  1.0000
  H   H3        1.0  0.26372598856687546  0.09096618974581361  0.8484162567183375  1.0000
  H   H4        1.0  0.9742423007264733  0.48286258382722735  0.5220671643037349  1.0000
  H   H5        1.0  0.25154393818229437  0.7140314928255975  0.7875266363844275  1.0000
  H   H6        1.0  0.21092175878584385  0.5589706869795918  0.35538036469370127  1.0000
  H   H7        1.0  0.32316658459603786  0.9538000840693712  0.731151582673192  1.0000
  H   H8        1.0  0.8577889017760754  0.0573215177282691  0.13515980110969394  1.0000
  H   H9        1.0  0.920961488969624  0.43250390514731407  0.8807874452322721  1.0000
  H   H10       1.0  0.07079754583537579  0.3597484827041626  0.1004696823656559  1.0000
  C   C1        1.0  0.4482828457839787  0.5410214504227042  0.8335033594630659  1.0000
  C   C2        1.0  0.7650295253843069  0.17779896687716246  0.3143797926604748  1.0000
  O   O1        1.0  0.14149641012772918  0.418859850615263  0.5622636713087559  1.0000
  O   O2        1.0  0.042634743731468916  0.38619407289661467  0.9373665569582954  1.0000
  O   O3        1.0  0.2610220779897645  0.428807818396308  0.6799602614482865  1.0000
  O   O4        1.0  0.6567558441311121  0.6091983688529581  0.7065316778607666  1.0000
  O   O5        1.0  0.9347121884347871  0.0420035949209705  0.7522226764995139  1.0000
  O   O6        1.0  0.9474123324616812  0.2889008205384016  0.29833025159314275  1.0000
  O   O7        1.0  0.7775423643179238  0.3075583125464618  0.22503168194089085  1.0000
  O   O8        1.0  0.0380728094605729  0.3835727557307109  0.6664847691718023  1.0000
  O   O9        1.0  0.8978277698624879  0.6741385601926595  0.17461935710161924  1.0000
  O   O10       1.0  0.30160347803030163  0.013303912070114166  0.5574681091529783  1.0000
  O   O11       1.0  0.7210014636511914  0.7993939133884851  0.853106716502225  1.0000
  O   O12       1.0  0.3314802287204657  0.04960727319121361  0.6639100804459304  1.0000
  O   O13       1.0  0.9287061728537083  0.9673566368874162  0.8604000429622829  1.0000
  O   O14       1.0  0.7550054029561579  0.8900517229922116  0.4804494097479619  1.0000
data_image85
_chemical_formula_structural       Pr2P2H10C2O14
_chemical_formula_sum              "Pr2 P2 H10 C2 O14"
_cell_length_a       6.761788999999999
_cell_length_b       7.146483751908908
_cell_length_c       7.843598011864962
_cell_angle_alpha    110.54253585495134
_cell_angle_beta     95.79501476046597
_cell_angle_gamma    89.49575901902455

_space_group_name_H-M_alt    "P 1"
_space_group_IT_number       1

loop_
  _space_group_symop_operation_xyz
  'x, y, z'

loop_
  _atom_site_type_symbol
  _atom_site_label
  _atom_site_symmetry_multiplicity
  _atom_site_fract_x
  _atom_site_fract_y
  _atom_site_fract_z
  _atom_site_occupancy
  Pr  Pr1       1.0  0.9706914806738496  0.72273263707757  0.48037324182587327  1.0000
  Pr  Pr2       1.0  0.8432694869115949  0.5283087231218815  0.9169815350323915  1.0000
  P   P1        1.0  0.8965515941381454  0.3353625393938273  0.8519910741597414  1.0000
  P   P2        1.0  0.8202202096581459  0.12126198410987854  0.8921535946428776  1.0000
  H   H1        1.0  0.9870318453758955  0.7901281388476491  0.28062346880324185  1.0000
  H   H2        1.0  0.18592730909585953  0.1772461961954832  0.5928935147821903  1.0000
  H   H3        1.0  0.7692667357623577  0.5780241107568145  0.8418658599257469  1.0000
  H   H4        1.0  0.6484628980979323  0.5317135835066438  0.6144491666345857  1.0000
  H   H5        1.0  0.9651130605489016  0.9186381152831018  0.5949844629503787  1.0000
  H   H6        1.0  0.7815616950392723  0.7698292806744576  0.8250251300632954  1.0000
  H   H7        1.0  0.5253406204283237  0.9460399774834514  0.4460534155368805  1.0000
  H   H8        1.0  0.967799223959446  0.34863521764054894  0.9717190361116081  1.0000
  H   H9        1.0  0.06398850749246776  0.07304070517420769  0.2658215342089534  1.0000
  H   H10       1.0  0.49150517024099827  0.21809978038072586  0.3473490923643112  1.0000
  C   C1        1.0  0.5499238441698253  0.0966933099552989  0.17379839485511184  1.0000
  C   C2        1.0  0.2898229476995766  0.4367227852344513  0.4431684720038902  1.0000
  O   O1        1.0  0.8769173475448042  0.4014713168144226  0.33945605158805847  1.0000
  O   O2        1.0  0.18816568097099662  0.034530695993453264  0.20181058495654725  1.0000
  O   O3        1.0  0.049915952258743346  0.9114255184758804  0.7399251412134618  1.0000
  O   O4        1.0  0.20091738225892186  0.8686927086673677  0.5703213785309345  1.0000
  O   O5        1.0  0.3148022237000987  0.2689890916226432  0.7122564929595683  1.0000
  O   O6        1.0  0.016929080127738416  0.38572657690383494  0.16040788148529828  1.0000
  O   O7        1.0  0.16452328767627478  0.9999960009008646  0.43125775177031755  1.0000
  O   O8        1.0  0.5549336754484102  0.3834771105321124  0.9439821642299648  1.0000
  O   O9        1.0  0.9970674437936395  0.6407269623596221  0.027392696123570204  1.0000
  O   O10       1.0  0.35512252198532224  0.6450614925706759  0.1801183785428293  1.0000
  O   O11       1.0  0.08909697466879152  0.6220073926670011  0.5028575680480571  1.0000
  O   O12       1.0  0.925491798814619  0.27179207699373364  0.3713946654170286  1.0000
  O   O13       1.0  0.23206587601453066  0.9148137730080634  0.8416524305939674  1.0000
  O   O14       1.0  0.5088747856207192  0.00854074815288186  0.8022083947435021  1.0000
data_image86
_chemical_formula_structural       Pr2P2H10C2O14
_chemical_formula_sum              "Pr2 P2 H10 C2 O14"
_cell_length_a       6.761788999999999
_cell_length_b       7.146483751908908
_cell_length_c       7.843598011864962
_cell_angle_alpha    110.54253585495134
_cell_angle_beta     95.79501476046597
_cell_angle_gamma    89.49575901902455

_space_group_name_H-M_alt    "P 1"
_space_group_IT_number       1

loop_
  _space_group_symop_operation_xyz
  'x, y, z'

loop_
  _atom_site_type_symbol
  _atom_site_label
  _atom_site_symmetry_multiplicity
  _atom_site_fract_x
  _atom_site_fract_y
  _atom_site_fract_z
  _atom_site_occupancy
  Pr  Pr1       1.0  0.17456063674762845  0.3072210606187582  0.6291819496400421  1.0000
  Pr  Pr2       1.0  0.16059321409557015  0.9760149493813515  0.4729139590635896  1.0000
  P   P1        1.0  0.046344175934791565  0.40282454347470775  0.737846102565527  1.0000
  P   P2        1.0  0.5397218689322472  0.019445568323135376  0.4754447564482689  1.0000
  H   H1        1.0  0.8881694199517369  0.3926819711923599  0.22728669666685164  1.0000
  H   H2        1.0  0.5002276534214616  0.1729806875810027  0.31901003047823906  1.0000
  H   H3        1.0  0.27664607763290405  0.13261344283819199  0.22766387276351452  1.0000
  H   H4        1.0  0.29534973204135895  0.8844601572491229  0.39504615461919457  1.0000
  H   H5        1.0  0.5967394318431616  0.42048663180321455  0.5179876028560102  1.0000
  H   H6        1.0  0.99276471324265  0.018860858865082264  0.928759666159749  1.0000
  H   H7        1.0  0.7378876078873873  0.32914358749985695  0.17517742700874805  1.0000
  H   H8        1.0  0.4145307168364525  0.43595836497843266  0.7962928062770516  1.0000
  H   H9        1.0  0.7167727437335998  0.592950601130724  0.10456662345677614  1.0000
  H   H10       1.0  0.2547136414796114  0.873499657958746  0.29384520649909973  1.0000
  C   C1        1.0  0.05357478931546211  0.9331556474789977  0.23430393310263753  1.0000
  C   C2        1.0  0.23119385237805545  0.2164627225138247  0.1846743589558173  1.0000
  O   O1        1.0  0.9313329749274999  0.7624373212456703  0.3366030976176262  1.0000
  O   O2        1.0  0.02041151002049446  0.6472446727566421  0.03735397109994665  1.0000
  O   O3        1.0  0.2902834372362122  0.4688250973963477  0.5921322262147442  1.0000
  O   O4        1.0  0.58340809866786  0.9467550627887249  0.5240276951808482  1.0000
  O   O5        1.0  0.5755075248889625  0.46454398322384804  0.3218759429837519  1.0000
  O   O6        1.0  0.5994732009712607  0.9365172975230962  0.8776343482313678  1.0000
  O   O7        1.0  0.07290502032265067  0.5927551346831024  0.8497043924871832  1.0000
  O   O8        1.0  0.1712391166947782  0.9819075023988262  0.16769970711902715  1.0000
  O   O9        1.0  0.4973692880012095  0.7297369644511491  0.3200645041652024  1.0000
  O   O10       1.0  0.9581432150444016  0.2762669923249632  0.15270980788045563  1.0000
  O   O11       1.0  0.6606549841817468  0.4137308443314396  0.04323081986149191  1.0000
  O   O12       1.0  0.387547405785881  0.9656178127042949  0.4494565083878115  1.0000
  O   O13       1.0  0.15076623670756817  0.3297567421104759  0.9984949678182602  1.0000
  O   O14       1.0  0.22205323120579123  0.9853620261419564  0.8571850754087791  1.0000
data_image87
_chemical_formula_structural       Pr2P2H10C2O14
_chemical_formula_sum              "Pr2 P2 H10 C2 O14"
_cell_length_a       6.761788999999999
_cell_length_b       7.146483751908908
_cell_length_c       7.843598011864962
_cell_angle_alpha    110.54253585495134
_cell_angle_beta     95.79501476046597
_cell_angle_gamma    89.49575901902455

_space_group_name_H-M_alt    "P 1"
_space_group_IT_number       1

loop_
  _space_group_symop_operation_xyz
  'x, y, z'

loop_
  _atom_site_type_symbol
  _atom_site_label
  _atom_site_symmetry_multiplicity
  _atom_site_fract_x
  _atom_site_fract_y
  _atom_site_fract_z
  _atom_site_occupancy
  Pr  Pr1       1.0  0.7825667196884751  0.21745305694639683  0.4417323952948209  1.0000
  Pr  Pr2       1.0  0.4763567475602031  0.3803081624209881  0.436224477365613  1.0000
  P   P1        1.0  0.36966508626937866  0.2824263870716095  0.9326768182218075  1.0000
  P   P2        1.0  0.6264201775193214  0.6583503186702728  0.537102771922946  1.0000
  H   H1        1.0  0.4065486043691635  0.5985397873446345  0.6758749063592404  1.0000
  H   H2        1.0  0.6075526354834437  0.2952392194420099  0.49190597981214523  1.0000
  H   H3        1.0  0.1909097135066986  0.5113821141421795  0.641894559841603  1.0000
  H   H4        1.0  0.7796392971649766  0.8524481630884111  0.08260011667152867  1.0000
  H   H5        1.0  0.6753600612282753  0.2556883869692683  0.14906966779381037  1.0000
  H   H6        1.0  0.25367422588169575  0.931972878985107  0.09296123404055834  1.0000
  H   H7        1.0  0.8730667419731617  0.8320274259895086  0.3031842242926359  1.0000
  H   H8        1.0  0.971009761095047  0.3574217658024281  0.07796863513067365  1.0000
  H   H9        1.0  0.8429397025611252  0.9729075878858566  0.5423423144966364  1.0000
  H   H10       1.0  0.960328970104456  0.06834503263235092  0.006877284497022629  1.0000
  C   C1        1.0  0.08167320024222136  0.320140921510756  0.36582529824227095  1.0000
  C   C2        1.0  0.3665630795294419  0.2315848688594997  0.8293503379100002  1.0000
  O   O1        1.0  0.2564868568442762  0.12526372261345387  0.3857968635857105  1.0000
  O   O2        1.0  0.9444387410767376  0.18867975613102317  0.155705191049492  1.0000
  O   O3        1.0  0.12164436955936253  0.37398639176535653  0.7560861044330522  1.0000
  O   O4        1.0  0.666316932067275  0.7404669923707843  0.652621483663097  1.0000
  O   O5        1.0  0.443953538488131  0.38409660721663386  0.33447537024039775  1.0000
  O   O6        1.0  0.06236033630557358  0.26623497530817986  0.9776931063388474  1.0000
  O   O7        1.0  0.505435963626951  0.9397046575322747  0.9115222798427567  1.0000
  O   O8        1.0  0.05096615257207304  0.6940973249729723  0.6953453736787196  1.0000
  O   O9        1.0  0.8612455509137362  0.4686965891160071  0.4562373517546803  1.0000
  O   O10       1.0  0.775063952896744  0.5043620357173495  0.7457112018309999  1.0000
  O   O11       1.0  0.5311043834954035  0.9996761679067276  0.5746768434119076  1.0000
  O   O12       1.0  0.6227000059734564  0.8997895824722946  0.3284788846503943  1.0000
  O   O13       1.0  0.35676796175539494  0.9130903810728341  0.25739008048549294  1.0000
  O   O14       1.0  0.5655344715341926  0.9593130853027105  0.8753253762843087  1.0000
data_image88
_chemical_formula_structural       Pr2P2H10C2O14
_chemical_formula_sum              "Pr2 P2 H10 C2 O14"
_cell_length_a       6.761788999999999
_cell_length_b       7.146483751908908
_cell_length_c       7.843598011864962
_cell_angle_alpha    110.54253585495134
_cell_angle_beta     95.79501476046597
_cell_angle_gamma    89.49575901902455

_space_group_name_H-M_alt    "P 1"
_space_group_IT_number       1

loop_
  _space_group_symop_operation_xyz
  'x, y, z'

loop_
  _atom_site_type_symbol
  _atom_site_label
  _atom_site_symmetry_multiplicity
  _atom_site_fract_x
  _atom_site_fract_y
  _atom_site_fract_z
  _atom_site_occupancy
  Pr  Pr1       1.0  0.8736726175993681  0.9854800160974264  0.14415864541660994  1.0000
  Pr  Pr2       1.0  0.05014187493361533  0.6280863098800182  0.6886965995654464  1.0000
  P   P1        1.0  0.7826014459133148  0.6868145546177402  0.09463269636034966  1.0000
  P   P2        1.0  0.41422440111637115  0.0046660155057907104  0.8946935590356588  1.0000
  H   H1        1.0  0.774377110414207  0.07941796630620956  0.9846700052730739  1.0000
  H   H2        1.0  0.7892543887719512  0.6734165186062455  0.26129113510251045  1.0000
  H   H3        1.0  0.08009253814816475  0.9850047742947936  0.8869218653999269  1.0000
  H   H4        1.0  0.617756855674088  0.5970924855209887  0.15800736442906782  1.0000
  H   H5        1.0  0.2428172379732132  0.2313249409198761  0.624522044789046  1.0000
  H   H6        1.0  0.18986162170767784  0.5891339294612408  0.26383355911821127  1.0000
  H   H7        1.0  0.6336997896432877  0.8053662367165089  0.47575589641928673  1.0000
  H   H8        1.0  0.5496918596327305  0.005005819257348776  0.3867632255423814  1.0000
  H   H9        1.0  0.3092850362882018  0.588515717536211  0.7708588354289532  1.0000
  H   H10       1.0  0.8444020785391331  0.3024267740547657  0.9327030703425407  1.0000
  C   C1        1.0  0.5669176867231727  0.9985228851437569  0.7568001388572156  1.0000
  C   C2        1.0  0.8891946949297562  0.20369843626394868  0.6734756695223041  1.0000
  O   O1        1.0  0.09526841598562896  0.5967261716723442  0.7238720096647739  1.0000
  O   O2        1.0  0.8368837395682931  0.9625299025792629  0.35857073008082807  1.0000
  O   O3        1.0  0.029749731766059995  0.5834949724758189  0.8654258138267323  1.0000
  O   O4        1.0  0.32710921531543136  0.4005298651754856  0.30583726544864476  1.0000
  O   O5        1.0  0.057547295931726694  0.5138293490745127  0.4958117920468794  1.0000
  O   O6        1.0  0.32839136506663635  0.5913510455284268  0.7665390651673079  1.0000
  O   O7        1.0  0.9794736416079104  0.37997162295505404  0.5980491461232305  1.0000
  O   O8        1.0  0.44508215447422117  0.8135815667919815  0.20239335420774296  1.0000
  O   O9        1.0  0.4635833241045475  0.9460969418287277  0.036022756015881896  1.0000
  O   O10       1.0  0.5823963566217571  0.3505329036270268  0.307459945383016  1.0000
  O   O11       1.0  0.20413344603730366  0.7086166669032536  0.6668721369624109  1.0000
  O   O12       1.0  0.11022449081065133  0.388270384632051  0.5839628758840263  1.0000
  O   O13       1.0  0.21029033046215773  0.7160564744845033  0.9263537535443902  1.0000
  O   O14       1.0  0.6504609556868672  0.44518538331612945  0.8858078935882077  1.0000
data_image89
_chemical_formula_structural       Pr2P2H10C2O14
_chemical_formula_sum              "Pr2 P2 H10 C2 O14"
_cell_length_a       6.761788999999999
_cell_length_b       7.146483751908908
_cell_length_c       7.843598011864962
_cell_angle_alpha    110.54253585495134
_cell_angle_beta     95.79501476046597
_cell_angle_gamma    89.49575901902455

_space_group_name_H-M_alt    "P 1"
_space_group_IT_number       1

loop_
  _space_group_symop_operation_xyz
  'x, y, z'

loop_
  _atom_site_type_symbol
  _atom_site_label
  _atom_site_symmetry_multiplicity
  _atom_site_fract_x
  _atom_site_fract_y
  _atom_site_fract_z
  _atom_site_occupancy
  Pr  Pr1       1.0  0.6057402961887419  0.24439672008156776  0.1338229996545124  1.0000
  Pr  Pr2       1.0  0.5250802885275334  0.9387003220617771  0.8049267418682575  1.0000
  P   P1        1.0  0.39684736728668213  0.5178273006458767  0.5812341049313545  1.0000
  P   P2        1.0  0.6867592483758926  0.4089761972427368  0.36691202968358994  1.0000
  H   H1        1.0  0.018927560187876225  0.4288626713678241  0.9273750868160278  1.0000
  H   H2        1.0  0.7007964234799147  0.7360412385314703  0.9106322675943375  1.0000
  H   H3        1.0  0.7005869783461094  0.9917839672416449  0.6213149107061327  1.0000
  H   H4        1.0  0.5269435811787844  0.9601414236240089  0.10903043410507962  1.0000
  H   H5        1.0  0.4107319163158536  0.8627271275036037  0.548060315195471  1.0000
  H   H6        1.0  0.7275887802243233  0.1085156537592411  0.12037301156669855  1.0000
  H   H7        1.0  0.22833067178726196  0.041818453930318356  0.11346246674656868  1.0000
  H   H8        1.0  0.18403112888336182  0.8848812424112111  0.3043591985478997  1.0000
  H   H9        1.0  0.9293324167374521  0.22192096896469593  0.0341800507158041  1.0000
  H   H10       1.0  0.9551944248378277  0.002966560423374176  0.4655184708535671  1.0000
  C   C1        1.0  0.892999641597271  0.1199728436768055  0.419105785433203  1.0000
  C   C2        1.0  0.33168780035339296  0.38972918735817075  0.25696990406140685  1.0000
  O   O1        1.0  0.6481253881938756  0.5255799368023872  0.6760213412344456  1.0000
  O   O2        1.0  0.016982214991003275  0.7172613432630897  0.8036516743013635  1.0000
  O   O3        1.0  0.4164767654146999  0.47934575871477136  0.22677377262152731  1.0000
  O   O4        1.0  0.6027901736088097  0.012783250072970986  0.2508010510355234  1.0000
  O   O5        1.0  0.34287138853687793  0.3257258314406499  0.2782134429726284  1.0000
  O   O6        1.0  0.6618327822070569  0.41256950446404517  0.8064856291748583  1.0000
  O   O7        1.0  0.6489638504572213  0.23467698087915778  0.003284664242528379  1.0000
  O   O8        1.0  0.20372968108858913  0.0455862384987995  0.6200748011760879  1.0000
  O   O9        1.0  0.7130236993543804  0.38189800549298525  0.28504921589046717  1.0000
  O   O10       1.0  0.421692211413756  0.5846781241707504  0.5737926521105692  1.0000
  O   O11       1.0  0.8656145457644016  0.6576855005405378  0.48192190131157986  1.0000
  O   O12       1.0  0.08091668196721002  0.34454150195233524  0.9542544076684862  1.0000
  O   O13       1.0  0.5456779701635242  0.46773630124516785  0.9912147694267333  1.0000
  O   O14       1.0  0.20607794262468815  0.7174290684051812  0.5940975925186649  1.0000
data_image90
_chemical_formula_structural       Pr2P2H10C2O14
_chemical_formula_sum              "Pr2 P2 H10 C2 O14"
_cell_length_a       6.761788999999999
_cell_length_b       7.146483751908908
_cell_length_c       7.843598011864962
_cell_angle_alpha    110.54253585495134
_cell_angle_beta     95.79501476046597
_cell_angle_gamma    89.49575901902455

_space_group_name_H-M_alt    "P 1"
_space_group_IT_number       1

loop_
  _space_group_symop_operation_xyz
  'x, y, z'

loop_
  _atom_site_type_symbol
  _atom_site_label
  _atom_site_symmetry_multiplicity
  _atom_site_fract_x
  _atom_site_fract_y
  _atom_site_fract_z
  _atom_site_occupancy
  Pr  Pr1       1.0  0.8379725026898086  0.9672961048781872  0.7092432969948277  1.0000
  Pr  Pr2       1.0  0.2981783668510616  0.4491844139993191  0.8634801311418414  1.0000
  P   P1        1.0  0.7262519150972366  0.03312782116699964  0.47800737619400024  1.0000
  P   P2        1.0  0.9143467247486115  0.1760069578886032  0.966916399076581  1.0000
  H   H1        1.0  0.4922428885474801  0.33325081784278154  0.957949270028621  1.0000
  H   H2        1.0  0.870326204225421  0.6329898303374648  0.8861585520207882  1.0000
  H   H3        1.0  0.7957161068916321  0.775758340023458  0.1257430799305439  1.0000
  H   H4        1.0  0.4485393790528178  0.963526850566268  0.2549476142739877  1.0000
  H   H5        1.0  0.15549904201179743  0.7889647674746811  0.4401046955026686  1.0000
  H   H6        1.0  0.5439504012465477  0.12902076542377472  0.19598491117358208  1.0000
  H   H7        1.0  0.6267595216631889  0.10802195873111486  0.7805332615971565  1.0000
  H   H8        1.0  0.6040309779345989  0.17809710535220802  0.9172766245901585  1.0000
  H   H9        1.0  0.5010162089020014  0.700706422328949  0.7630312582477927  1.0000
  H   H10       1.0  0.11744053475558758  0.5310727246105671  0.9878495708107948  1.0000
  C   C1        1.0  0.30048459861427546  0.17985714972019196  0.849861856084317  1.0000
  C   C2        1.0  0.6539807950612158  0.4866659571416676  0.566119781578891  1.0000
  O   O1        1.0  0.9371243296191096  0.7992869820445776  0.11411292105913162  1.0000
  O   O2        1.0  0.683409467805177  0.8608668306842446  0.7661116501985816  1.0000
  O   O3        1.0  0.861275572096929  0.6128695569495903  0.8895016456954181  1.0000
  O   O4        1.0  0.01950645400211215  0.6075036325491965  0.8674946187529713  1.0000
  O   O5        1.0  0.8625983292004094  0.3785043915268034  0.5185657789406832  1.0000
  O   O6        1.0  0.04444891097955406  0.04667167831212282  0.720533098501619  1.0000
  O   O7        1.0  0.7682818146422505  0.6786796585656703  0.9696838828967884  1.0000
  O   O8        1.0  0.583050366374664  0.1441547410795465  0.3618957271974068  1.0000
  O   O9        1.0  0.7863752455450594  0.4547947575338185  0.5012817257083952  1.0000
  O   O10       1.0  0.7595190163701773  0.3613240651029628  0.8739941652165726  1.0000
  O   O11       1.0  0.5978460820333567  0.37407904415158555  0.5880725483584683  1.0000
  O   O12       1.0  0.510811780433869  0.9265472746919841  0.08659700653515756  1.0000
  O   O13       1.0  0.7147983992472291  0.9873313230928034  0.8860724386759102  1.0000
  O   O14       1.0  0.8493330429773778  0.9959608046337962  0.3421840436058119  1.0000
data_image91
_chemical_formula_structural       Pr2P2H10C2O14
_chemical_formula_sum              "Pr2 P2 H10 C2 O14"
_cell_length_a       6.761788999999999
_cell_length_b       7.146483751908908
_cell_length_c       7.843598011864962
_cell_angle_alpha    110.54253585495134
_cell_angle_beta     95.79501476046597
_cell_angle_gamma    89.49575901902455

_space_group_name_H-M_alt    "P 1"
_space_group_IT_number       1

loop_
  _space_group_symop_operation_xyz
  'x, y, z'

loop_
  _atom_site_type_symbol
  _atom_site_label
  _atom_site_symmetry_multiplicity
  _atom_site_fract_x
  _atom_site_fract_y
  _atom_site_fract_z
  _atom_site_occupancy
  Pr  Pr1       1.0  0.847843071911484  0.6969291716814041  0.16877835195919033  1.0000
  Pr  Pr2       1.0  0.3663845951668918  0.22672637179493904  0.5988060645759106  1.0000
  P   P1        1.0  0.2318774163722992  0.8187133921310306  0.47917937114834785  1.0000
  P   P2        1.0  0.4376114085316658  0.545213133096695  0.9592184126377106  1.0000
  H   H1        1.0  0.5734421201050282  0.4790524672716856  0.4235848211683333  1.0000
  H   H2        1.0  0.7023241333663464  0.5226293057203293  0.6749899871647358  1.0000
  H   H3        1.0  0.9738928787410259  0.20656378287822008  0.6531009068712592  1.0000
  H   H4        1.0  0.1757760988548398  0.7717944895848632  0.8294826261117123  1.0000
  H   H5        1.0  0.3018185067921877  0.2904414599761367  0.0007249577902257442  1.0000
  H   H6        1.0  0.7271292638033628  0.9644197607412934  0.5528669524937868  1.0000
  H   H7        1.0  0.08776606246829033  0.9624469354748726  0.9394058398902416  1.0000
  H   H8        1.0  0.010243162512779236  0.5467173636425287  0.7719154881779104  1.0000
  H   H9        1.0  0.7621878010686487  0.9666176047176123  0.5321244774386287  1.0000
  H   H10       1.0  0.8997718319296837  0.054972026497125626  0.5695174857974052  1.0000
  C   C1        1.0  0.6392924343235791  0.11774472892284393  0.2239084173925221  1.0000
  C   C2        1.0  0.9310278134653345  0.8904811395332217  0.6504692525486462  1.0000
  O   O1        1.0  0.03205992793664336  0.3174861054867506  0.13301464170217514  1.0000
  O   O2        1.0  0.5869806106202304  0.3146893094526604  0.11320837293169461  1.0000
  O   O3        1.0  0.8511767704039812  0.22111049259910942  0.07158983056433499  1.0000
  O   O4        1.0  0.7824906394816935  0.6801886812318116  0.3693505076225847  1.0000
  O   O5        1.0  0.9581508781702723  0.6138491922756657  0.9179461738094687  1.0000
  O   O6        1.0  0.4964869885588996  0.32908400474116206  0.6894651217735372  1.0000
  O   O7        1.0  0.4320375476963818  0.8364812410436571  0.9700161900836974  1.0000
  O   O8        1.0  0.13710120704490691  0.9422246555332094  0.28193718698457815  1.0000
  O   O9        1.0  0.6031532178167254  0.5419314270839095  0.9814894373994321  1.0000
  O   O10       1.0  0.8673937811981887  0.4437476649909513  0.7607278670766391  1.0000
  O   O11       1.0  0.5870896418055054  0.16740467239287682  0.9548956799917505  1.0000
  O   O12       1.0  0.07398865564027801  0.31416972749866545  0.7755786806810647  1.0000
  O   O13       1.0  0.3042682623490691  0.39610354811884463  0.4051351579837501  1.0000
  O   O14       1.0  0.778945823200047  0.4882372464053333  0.6796982849482447  1.0000
data_image92
_chemical_formula_structural       Pr2P2H10C2O14
_chemical_formula_sum              "Pr2 P2 H10 C2 O14"
_cell_length_a       6.761788999999999
_cell_length_b       7.146483751908908
_cell_length_c       7.843598011864962
_cell_angle_alpha    110.54253585495134
_cell_angle_beta     95.79501476046597
_cell_angle_gamma    89.49575901902455

_space_group_name_H-M_alt    "P 1"
_space_group_IT_number       1

loop_
  _space_group_symop_operation_xyz
  'x, y, z'

loop_
  _atom_site_type_symbol
  _atom_site_label
  _atom_site_symmetry_multiplicity
  _atom_site_fract_x
  _atom_site_fract_y
  _atom_site_fract_z
  _atom_site_occupancy
  Pr  Pr1       1.0  0.859605276491493  0.33595478907227516  0.14646790915867314  1.0000
  Pr  Pr2       1.0  0.35652369959279895  0.8674371540546417  0.2602485539391637  1.0000
  P   P1        1.0  0.18290042877197266  0.9613092370564118  0.22558104619383812  1.0000
  P   P2        1.0  0.88509351760149  0.2016134113073349  0.797744233161211  1.0000
  H   H1        1.0  0.9915172234177589  0.17101303208619356  0.4151999338064343  1.0000
  H   H2        1.0  0.5465771378949285  0.028720688074827194  0.11036019772291183  1.0000
  H   H3        1.0  0.6263144500553608  0.6859914232045412  0.09033365035429597  1.0000
  H   H4        1.0  0.937597175128758  0.9939833199605346  0.46275375690311193  1.0000
  H   H5        1.0  0.27812048234045506  0.35591245722025633  0.7292748228646815  1.0000
  H   H6        1.0  0.6961064282804728  0.9781304793432355  0.6962213590741158  1.0000
  H   H7        1.0  0.8047163784503937  0.39566843770444393  0.14514308143407106  1.0000
  H   H8        1.0  0.5159891620278358  0.7568576401099563  0.39187315525487065  1.0000
  H   H9        1.0  0.8916137698106468  0.7179764118045568  0.46747568994760513  1.0000
  H   H10       1.0  0.06368208676576614  0.6952677257359028  0.11188008636236191  1.0000
  C   C1        1.0  0.47668517800047994  0.5283670239150524  0.9053810015320778  1.0000
  C   C2        1.0  0.0927653934340924  0.27428168756887317  0.042600615648552775  1.0000
  O   O1        1.0  0.2899134191684425  0.5232816282659769  0.21806905791163445  1.0000
  O   O2        1.0  0.7039588834159076  0.6755547826178372  0.6145215846772771  1.0000
  O   O3        1.0  0.1314735086634755  0.3120009158128596  0.4219612223096192  1.0000
  O   O4        1.0  0.499142381362617  0.5910555722657591  0.45913835940882564  1.0000
  O   O5        1.0  0.9427880979201291  0.3056861845543608  0.3240061372634955  1.0000
  O   O6        1.0  0.04087730206083506  0.8492195312865078  0.2674869341426529  1.0000
  O   O7        1.0  0.43186978390440345  0.1458303751423955  0.07938878831919283  1.0000
  O   O8        1.0  0.5353771884692833  0.5721551273018122  0.27206706936703995  1.0000
  O   O9        1.0  0.598088497761637  0.5618118457496166  0.8332351045683026  1.0000
  O   O10       1.0  0.5476630150806159  0.9016620054026134  0.062089576676953584  1.0000
  O   O11       1.0  0.008723628852749243  0.5490914933179738  0.32107771785376826  1.0000
  O   O12       1.0  0.8133648739312775  0.29975306591950357  0.9201287408359349  1.0000
  O   O13       1.0  0.4798729596659541  0.8602671504486352  0.80547487270087  1.0000
  O   O14       1.0  0.2986031819600612  0.05091957421973348  0.7648167973384261  1.0000
data_image93
_chemical_formula_structural       Pr2P2H10C2O14
_chemical_formula_sum              "Pr2 P2 H10 C2 O14"
_cell_length_a       6.761788999999999
_cell_length_b       7.146483751908908
_cell_length_c       7.843598011864962
_cell_angle_alpha    110.54253585495134
_cell_angle_beta     95.79501476046597
_cell_angle_gamma    89.49575901902455

_space_group_name_H-M_alt    "P 1"
_space_group_IT_number       1

loop_
  _space_group_symop_operation_xyz
  'x, y, z'

loop_
  _atom_site_type_symbol
  _atom_site_label
  _atom_site_symmetry_multiplicity
  _atom_site_fract_x
  _atom_site_fract_y
  _atom_site_fract_z
  _atom_site_occupancy
  Pr  Pr1       1.0  0.08311728620901704  0.8265357930213213  0.9430273494581343  1.0000
  Pr  Pr2       1.0  0.23669464141130447  0.07475212961435318  0.8198668984696269  1.0000
  P   P1        1.0  0.8844188302755356  0.345246278855484  0.2508007362484932  1.0000
  P   P2        1.0  0.019374214112758636  0.13276900351047516  0.7314440216869116  1.0000
  H   H1        1.0  0.27945053577423096  0.5512087186798453  0.7822724056895822  1.0000
  H   H2        1.0  0.4520567059516907  0.7816349789500237  0.47725264728069305  1.0000
  H   H3        1.0  0.6752649992704391  0.5863909972831607  0.6373801100999117  1.0000
  H   H4        1.0  0.16792690940201283  0.3962991749867797  0.7186606679460965  1.0000
  H   H5        1.0  0.9253322426229715  0.8610272724181414  0.14613905269652605  1.0000
  H   H6        1.0  0.7240689545869827  0.6940235393121839  0.005872732028365135  1.0000
  H   H7        1.0  0.7492499221116304  0.7409443622455001  0.8283250788226724  1.0000
  H   H8        1.0  0.06143017113208771  0.7616739268414676  0.7492377667222172  1.0000
  H   H9        1.0  0.10296084103174508  0.9488975051790476  0.7589577017351985  1.0000
  H   H10       1.0  0.5338493250310421  0.05500558391213417  0.6604783236980438  1.0000
  C   C1        1.0  0.7395749557763338  0.31770567037165165  0.677783674094826  1.0000
  C   C2        1.0  0.11489756859373301  0.5142788228113204  0.014316850807517767  1.0000
  O   O1        1.0  0.1042418573051691  0.9675290752202272  0.6499108970165253  1.0000
  O   O2        1.0  0.5907215615734458  0.30172192747704685  0.6479029287584126  1.0000
  O   O3        1.0  0.6975588748464361  0.5995787131987527  0.5308750665280968  1.0000
  O   O4        1.0  0.3471764884889126  0.625552105018869  0.21026334865018725  1.0000
  O   O5        1.0  0.19770864106249064  0.10600004519801587  0.20249986651469953  1.0000
  O   O6        1.0  0.13395788054913282  0.776765264570713  0.8721232158713974  1.0000
  O   O7        1.0  0.7904525208286941  0.9124592756852508  0.387801795382984  1.0000
  O   O8        1.0  0.5003545001382008  0.9852147190831602  0.5133995589567348  1.0000
  O   O9        1.0  0.001663700444623828  0.8082255746703595  0.8687895557377487  1.0000
  O   O10       1.0  0.08552075701300055  0.6425986587128136  0.005183315370231867  1.0000
  O   O11       1.0  0.7101136343117105  0.6496348091459367  0.002900703220802825  1.0000
  O   O12       1.0  0.9985174765170086  0.28262032521888614  0.7042389747221023  1.0000
  O   O13       1.0  0.5306450147181749  0.06870567565783858  0.58527737762779  1.0000
  O   O14       1.0  0.10925490083172917  0.8083184610586613  0.6235216023633257  1.0000
data_image94
_chemical_formula_structural       Pr2P2H10C2O14
_chemical_formula_sum              "Pr2 P2 H10 C2 O14"
_cell_length_a       6.761788999999999
_cell_length_b       7.146483751908908
_cell_length_c       7.843598011864962
_cell_angle_alpha    110.54253585495134
_cell_angle_beta     95.79501476046597
_cell_angle_gamma    89.49575901902455

_space_group_name_H-M_alt    "P 1"
_space_group_IT_number       1

loop_
  _space_group_symop_operation_xyz
  'x, y, z'

loop_
  _atom_site_type_symbol
  _atom_site_label
  _atom_site_symmetry_multiplicity
  _atom_site_fract_x
  _atom_site_fract_y
  _atom_site_fract_z
  _atom_site_occupancy
  Pr  Pr1       1.0  0.01351424353197217  0.7179339751601219  0.8245566026052984  1.0000
  Pr  Pr2       1.0  0.9484900094103068  0.8832740224897861  0.8363441023975611  1.0000
  P   P1        1.0  0.07975970208644867  0.2011288070352748  0.49289821460843086  1.0000
  P   P2        1.0  0.3022575154900551  0.8846472501754761  0.10862007737159729  1.0000
  H   H1        1.0  0.32776128128170967  0.1966556990519166  0.9965259658638388  1.0000
  H   H2        1.0  0.07791970111429691  0.8084613010287285  0.11135523021221161  1.0000
  H   H3        1.0  0.63754628226161  0.7189834741875529  0.6425885111093521  1.0000
  H   H4        1.0  0.9733269782736897  0.5684508057311177  0.9614449265645817  1.0000
  H   H5        1.0  0.281843688338995  0.32165938476100564  0.2930349810048938  1.0000
  H   H6        1.0  0.3272990360856056  0.27396238688379526  0.14735350385308266  1.0000
  H   H7        1.0  0.4204509910196066  0.09306716918945312  0.8268946735188365  1.0000
  H   H8        1.0  0.6892419010400772  0.4736922250594944  0.0668168612755835  1.0000
  H   H9        1.0  0.6987943206913769  0.6432084552943707  0.21375075448304415  1.0000
  H   H10       1.0  0.36347902566194534  0.36422865837812424  0.673207338899374  1.0000
  C   C1        1.0  0.10279057919979095  0.8534804321825504  0.07547039957717061  1.0000
  C   C2        1.0  0.7455051165306941  0.17425793898291886  0.7902107232366689  1.0000
  O   O1        1.0  0.7098847567103803  0.23988904990255833  0.9853909574449062  1.0000
  O   O2        1.0  0.963472462259233  0.5847630765056238  0.8444098083418794  1.0000
  O   O3        1.0  0.15162537223659456  0.9748074359090424  0.01943950995337218  1.0000
  O   O4        1.0  0.9058196642436087  0.6694698859937489  0.41643702960573137  1.0000
  O   O5        1.0  0.8741339304542635  0.647581341327168  0.8521731344808359  1.0000
  O   O6        1.0  0.6661794031388126  0.4285721075721085  0.3006768086925149  1.0000
  O   O7        1.0  0.29463125113397837  0.3235417464748025  0.972756941919215  1.0000
  O   O8        1.0  0.09451188601087779  0.4196430122246966  0.12755241972627118  1.0000
  O   O9        1.0  0.47018696484155953  0.15572222834452987  0.9499158514663577  1.0000
  O   O10       1.0  0.3496649389853701  0.7688606884621549  0.429342529096175  1.0000
  O   O11       1.0  0.512047821044689  0.8042680590879172  0.01234993283287622  1.0000
  O   O12       1.0  0.7662168494134676  0.4483476039022207  0.9165542899863794  1.0000
  O   O13       1.0  0.7625665543600917  0.5637335423380136  0.8747776662930846  1.0000
  O   O14       1.0  0.40064991428516805  0.19861771585419774  0.7416247627697885  1.0000
data_image95
_chemical_formula_structural       Pr2P2H10C2O14
_chemical_formula_sum              "Pr2 P2 H10 C2 O14"
_cell_length_a       6.761788999999999
_cell_length_b       7.146483751908908
_cell_length_c       7.843598011864962
_cell_angle_alpha    110.54253585495134
_cell_angle_beta     95.79501476046597
_cell_angle_gamma    89.49575901902455

_space_group_name_H-M_alt    "P 1"
_space_group_IT_number       1

loop_
  _space_group_symop_operation_xyz
  'x, y, z'

loop_
  _atom_site_type_symbol
  _atom_site_label
  _atom_site_symmetry_multiplicity
  _atom_site_fract_x
  _atom_site_fract_y
  _atom_site_fract_z
  _atom_site_occupancy
  Pr  Pr1       1.0  0.6856445628218353  0.13086271844804287  0.5403212307501235  1.0000
  Pr  Pr2       1.0  0.740111107705161  0.8360304050147533  0.9100920613855124  1.0000
  P   P1        1.0  0.8345189392566681  0.9412733498029411  0.4698076695203781  1.0000
  P   P2        1.0  0.6838084533810616  0.733452320098877  0.25786156952381134  1.0000
  H   H1        1.0  0.23470297269523144  0.646277979016304  0.6529303144197911  1.0000
  H   H2        1.0  0.3846552548930049  0.7509904690086842  0.02791072428226471  1.0000
  H   H3        1.0  0.8223284631967545  0.5697580585256219  0.9854735876433551  1.0000
  H   H4        1.0  0.5402520215138793  0.4670269428752363  0.9143725860631093  1.0000
  H   H5        1.0  0.6722945244982839  0.43871452286839485  0.769711947068572  1.0000
  H   H6        1.0  0.31552577018737793  0.7551227202638984  0.5325002204626799  1.0000
  H   H7        1.0  0.24869666807353497  0.5156140830367804  0.1992229800671339  1.0000
  H   H8        1.0  0.3643556945025921  0.8283437425270677  0.016751204151660204  1.0000
  H   H9        1.0  0.2856567311100662  0.9185408353805542  0.7708521783351898  1.0000
  H   H10       1.0  0.7604368794709444  0.25417350232601166  0.9601370766758919  1.0000
  C   C1        1.0  0.4414354991167784  0.7786323819309473  0.7054797285236418  1.0000
  C   C2        1.0  0.6263588786823675  0.023342790082097054  0.33380015881266445  1.0000
  O   O1        1.0  0.4982870863750577  0.036515017971396446  0.7223295867443085  1.0000
  O   O2        1.0  0.921763002872467  0.27359538385644555  0.9928336555021815  1.0000
  O   O3        1.0  0.43395646719727665  0.5001996285081987  0.1273257393622771  1.0000
  O   O4        1.0  0.5940193813294172  0.656230113003403  0.33889936143532395  1.0000
  O   O5        1.0  0.6961286145378835  0.2731154036009684  0.0759778989595361  1.0000
  O   O6        1.0  0.024879639327991754  0.9715463693719357  0.13389078236650676  1.0000
  O   O7        1.0  0.9869259162805974  0.8308303114026785  0.2685621991404332  1.0000
  O   O8        1.0  0.3119192166486755  0.5804946798598394  0.7743748446955578  1.0000
  O   O9        1.0  0.39232340338639915  0.6648351431358606  0.069824532372877  1.0000
  O   O10       1.0  0.9443817710271105  0.6951764007098973  0.4131970215239562  1.0000
  O   O11       1.0  0.06585330139205325  0.4259248408052372  0.9031846407160629  1.0000
  O   O12       1.0  0.006555228756042197  0.07221202098298818  0.43376649788115174  1.0000
  O   O13       1.0  0.08144866582006216  0.39992112619802356  0.1643415866419673  1.0000
  O   O14       1.0  0.6559832997154444  0.6857888118829578  0.12870902370195836  1.0000
data_image96
_chemical_formula_structural       Pr2P2H10C2O14
_chemical_formula_sum              "Pr2 P2 H10 C2 O14"
_cell_length_a       6.761788999999999
_cell_length_b       7.146483751908908
_cell_length_c       7.843598011864962
_cell_angle_alpha    110.54253585495134
_cell_angle_beta     95.79501476046597
_cell_angle_gamma    89.49575901902455

_space_group_name_H-M_alt    "P 1"
_space_group_IT_number       1

loop_
  _space_group_symop_operation_xyz
  'x, y, z'

loop_
  _atom_site_type_symbol
  _atom_site_label
  _atom_site_symmetry_multiplicity
  _atom_site_fract_x
  _atom_site_fract_y
  _atom_site_fract_z
  _atom_site_occupancy
  Pr  Pr1       1.0  0.5564356707036495  0.7460015080869198  0.5613125285453862  1.0000
  Pr  Pr2       1.0  0.7773266579024494  0.18288633599877357  0.026046177372336388  1.0000
  P   P1        1.0  0.7800594568252563  0.8447268821182661  0.798707839101553  1.0000
  P   P2        1.0  0.9094103947281837  0.7303641885519028  0.5966389514505863  1.0000
  H   H1        1.0  0.986248298548162  0.4991631079465151  0.9586513070389628  1.0000
  H   H2        1.0  0.8482388481497765  0.8000152111053467  0.8077210113406181  1.0000
  H   H3        1.0  0.0011592395603656769  0.9884609803557396  0.03200472006574273  1.0000
  H   H4        1.0  0.7702395943924785  0.7964340327307582  0.473458219319582  1.0000
  H   H5        1.0  0.7046741051599383  0.405236067250371  0.7613896206021309  1.0000
  H   H6        1.0  0.9134180583059788  0.965640626847744  0.28731492441147566  1.0000
  H   H7        1.0  0.7181839160621166  0.3970960611477494  0.8226999100297689  1.0000
  H   H8        1.0  0.46936196833848953  0.7856070965062827  0.5221157337073237  1.0000
  H   H9        1.0  0.7579526724293828  0.7515019532293081  0.2452030200511217  1.0000
  H   H10       1.0  0.9978611283004284  0.9221304506063461  0.8888060264289379  1.0000
  C   C1        1.0  0.12928650481626391  0.675874100998044  0.6187053923495114  1.0000
  C   C2        1.0  0.325939167290926  0.1718221204355359  0.7902293327497318  1.0000
  O   O1        1.0  0.20574300549924374  0.4625834543257952  0.5481322705745697  1.0000
  O   O2        1.0  0.20592020265758038  0.6821823559002951  0.15447771991603076  1.0000
  O   O3        1.0  0.2536528630880639  0.30953564558058133  0.20020016841590405  1.0000
  O   O4        1.0  0.8224470186978579  0.062065814854577184  0.5012959486339241  1.0000
  O   O5        1.0  0.9451412640628405  0.30525060824584216  0.5519071848248132  1.0000
  O   O6        1.0  0.1286679483600892  0.5685590147040784  0.27550006814999506  1.0000
  O   O7        1.0  0.541189968585968  0.1927395802922547  0.9161555698374286  1.0000
  O   O8        1.0  0.31031973054632545  0.8660591401858255  0.878314762521768  1.0000
  O   O9        1.0  0.9378294271882623  0.2695491861086339  0.27173129958100617  1.0000
  O   O10       1.0  0.2188411762472242  0.47429819623357616  0.05593930365284905  1.0000
  O   O11       1.0  0.9529971579468111  0.5316531811549794  0.1715950874349801  1.0000
  O   O12       1.0  0.1601207575877197  0.8390680190641433  0.7604684054385871  1.0000
  O   O13       1.0  0.28811889328062534  0.2679003910161555  0.7147966921329498  1.0000
  O   O14       1.0  0.6120676214341074  0.6354078233707696  0.9488221128704026  1.0000
data_image97
_chemical_formula_structural       Pr2P2H10C2O14
_chemical_formula_sum              "Pr2 P2 H10 C2 O14"
_cell_length_a       6.761788999999999
_cell_length_b       7.146483751908908
_cell_length_c       7.843598011864962
_cell_angle_alpha    110.54253585495134
_cell_angle_beta     95.79501476046597
_cell_angle_gamma    89.49575901902455

_space_group_name_H-M_alt    "P 1"
_space_group_IT_number       1

loop_
  _space_group_symop_operation_xyz
  'x, y, z'

loop_
  _atom_site_type_symbol
  _atom_site_label
  _atom_site_symmetry_multiplicity
  _atom_site_fract_x
  _atom_site_fract_y
  _atom_site_fract_z
  _atom_site_occupancy
  Pr  Pr1       1.0  0.19175681611523032  0.7939248308539391  0.3098640873286058  1.0000
  Pr  Pr2       1.0  0.23385625751689076  0.46965261548757553  0.8338354080915451  1.0000
  P   P1        1.0  0.5831573307514191  0.059096911805681884  0.3970620855689049  1.0000
  P   P2        1.0  0.24978386610746384  0.4708370119333267  0.7757242023944855  1.0000
  H   H1        1.0  0.7371629131957889  0.786072289571166  0.41942968987859786  1.0000
  H   H2        1.0  0.08977529313415289  0.3148362869396806  0.6403468921780586  1.0000
  H   H3        1.0  0.10501755401492119  0.045527596957981586  0.20207228139042854  1.0000
  H   H4        1.0  0.449278999119997  0.5270281964913011  0.2664754609577358  1.0000
  H   H5        1.0  0.8107705591246486  0.2893558079376817  0.8693188070319593  1.0000
  H   H6        1.0  0.7911654263734818  0.9353376515209675  0.04282938037067652  1.0000
  H   H7        1.0  0.772300835698843  0.015359427779912949  0.8353919181972742  1.0000
  H   H8        1.0  0.0005864351987838745  0.9230982313165441  0.47856004955247045  1.0000
  H   H9        1.0  0.30134827084839344  0.5273439139127731  0.5107681145891547  1.0000
  H   H10       1.0  0.8083170652389526  0.9627478197216988  0.2546432949602604  1.0000
  C   C1        1.0  0.20035834098234773  0.06581482477486134  0.7609273502603173  1.0000
  C   C2        1.0  0.06633252114988863  0.4626236935146153  0.2623360430588946  1.0000
  O   O1        1.0  0.48462342377752066  0.00834626704454422  0.17780962958931923  1.0000
  O   O2        1.0  0.3781845518387854  0.875772456638515  0.2445842504967004  1.0000
  O   O3        1.0  0.26003446395043284  0.11489095747856481  0.8310432723956183  1.0000
  O   O4        1.0  0.43432271713390946  0.1551952299196273  0.14098070259205997  1.0000
  O   O5        1.0  0.7543297612282913  0.5830482154851779  0.1522063675802201  1.0000
  O   O6        1.0  0.6819518973352388  0.19539672532118857  0.35886819765437394  1.0000
  O   O7        1.0  0.4902586620301008  0.6608424135483801  0.8592591349733993  1.0000
  O   O8        1.0  0.30169599561486393  0.9559471316169947  0.11705923793488182  1.0000
  O   O9        1.0  0.5412726583890617  0.8166172055061907  0.04592377902008593  1.0000
  O   O10       1.0  0.9812747084069997  0.35470767665538006  0.40444876957917586  1.0000
  O   O11       1.0  0.05960849499388132  0.5643610456754686  0.8609931073442567  1.0000
  O   O12       1.0  0.12546765941078775  0.5600483363959938  0.00898341170977801  1.0000
  O   O13       1.0  0.4631467927247286  0.5276694365311414  0.4286615061573684  1.0000
  O   O14       1.0  0.5680175910238177  0.574182293144986  0.5947644908446819  1.0000
data_image98
_chemical_formula_structural       Pr2P2H10C2O14
_chemical_formula_sum              "Pr2 P2 H10 C2 O14"
_cell_length_a       6.761788999999999
_cell_length_b       7.146483751908908
_cell_length_c       7.843598011864962
_cell_angle_alpha    110.54253585495134
_cell_angle_beta     95.79501476046597
_cell_angle_gamma    89.49575901902455

_space_group_name_H-M_alt    "P 1"
_space_group_IT_number       1

loop_
  _space_group_symop_operation_xyz
  'x, y, z'

loop_
  _atom_site_type_symbol
  _atom_site_label
  _atom_site_symmetry_multiplicity
  _atom_site_fract_x
  _atom_site_fract_y
  _atom_site_fract_z
  _atom_site_occupancy
  Pr  Pr1       1.0  0.840683173853904  0.4621031619608402  0.46831405522607383  1.0000
  Pr  Pr2       1.0  0.7126527668442577  0.05169469118118286  0.9398811971768737  1.0000
  P   P1        1.0  0.9029794335365295  0.7150900933193043  0.38007425144314766  1.0000
  P   P2        1.0  0.20522793382406235  0.8245292752981186  0.55936667509377  1.0000
  H   H1        1.0  0.9746897201985121  0.3032748205587268  0.8073396263644099  1.0000
  H   H2        1.0  0.779296244494617  0.336056349799037  0.3906159922480583  1.0000
  H   H3        1.0  0.12894457206130028  0.3296636287122965  0.335308572743088  1.0000
  H   H4        1.0  0.3180756978690624  0.6447966196574271  0.744927276915405  1.0000
  H   H5        1.0  0.6994348578155041  0.6631346773356199  0.025113464798778296  1.0000
  H   H6        1.0  0.25059144385159016  0.3819608734920621  0.00945238582789898  1.0000
  H   H7        1.0  0.34177457354962826  0.013363861478865147  0.2951745856553316  1.0000
  H   H8        1.0  0.6570708863437176  0.5934932919917628  0.23844360723160207  1.0000
  H   H9        1.0  0.1506087384186685  0.4962590094655752  0.2989944275468588  1.0000
  H   H10       1.0  0.1761790793389082  0.30448728054761887  0.7091298177838326  1.0000
  C   C1        1.0  0.44315595272928476  0.10895263776183128  0.22566545009613037  1.0000
  C   C2        1.0  0.07017603772692382  0.9114058599807322  0.36091609532013535  1.0000
  O   O1        1.0  0.4122418877668679  0.11906830035150051  0.3103063777089119  1.0000
  O   O2        1.0  0.8947319565340877  0.514262237935327  0.615359146206174  1.0000
  O   O3        1.0  0.6365068601444364  0.04205235030531185  0.8474266650155187  1.0000
  O   O4        1.0  0.380049810744822  0.6075157376471907  0.9733698386698961  1.0000
  O   O5        1.0  0.650191084947437  0.07986967463511974  0.7427775182877667  1.0000
  O   O6        1.0  0.7229766622767784  0.99805917753838  0.49511392292333767  1.0000
  O   O7        1.0  0.8381768818944693  0.2035808190703392  0.2751137532177381  1.0000
  O   O8        1.0  0.40704911679495126  0.07121064304374158  0.09811115564662032  1.0000
  O   O9        1.0  0.5297833702061325  0.40852379612624645  0.912160073639825  1.0000
  O   O10       1.0  0.58296798390802  0.46769788721576333  0.9689369041589089  1.0000
  O   O11       1.0  0.3746794264880009  0.22531574255845044  0.7818584137276048  1.0000
  O   O12       1.0  0.10987494092842098  0.48159418907016516  0.11657574388664216  1.0000
  O   O13       1.0  0.16680856049060822  0.3373246071860194  0.46516481693834066  1.0000
  O   O14       1.0  0.704852337948978  0.039484696462750435  0.9890997805632651  1.0000
data_image99
_chemical_formula_structural       Pr2P2H10C2O14
_chemical_formula_sum              "Pr2 P2 H10 C2 O14"
_cell_length_a       6.761788999999999
_cell_length_b       7.146483751908908
_cell_length_c       7.843598011864962
_cell_angle_alpha    110.54253585495134
_cell_angle_beta     95.79501476046597
_cell_angle_gamma    89.49575901902455

_space_group_name_H-M_alt    "P 1"
_space_group_IT_number       1

loop_
  _space_group_symop_operation_xyz
  'x, y, z'

loop_
  _atom_site_type_symbol
  _atom_site_label
  _atom_site_symmetry_multiplicity
  _atom_site_fract_x
  _atom_site_fract_y
  _atom_site_fract_z
  _atom_site_occupancy
  Pr  Pr1       1.0  0.585863315500319  0.6467635966837406  0.05595127593551297  1.0000
  Pr  Pr2       1.0  0.9417882803827524  0.23127584531903267  0.7863322841003537  1.0000
  P   P1        1.0  0.5937320291996002  0.27361147379269823  0.6235581487417221  1.0000
  P   P2        1.0  0.0983770415186882  0.04510878026485443  0.9503651168197393  1.0000
  H   H1        1.0  0.44061708450317383  0.19715517200529575  0.205628969008103  1.0000
  H   H2        1.0  0.30146083515137434  0.14432405959814787  0.506091333925724  1.0000
  H   H3        1.0  0.6256097368896008  0.09940201137214899  0.3957003732211888  1.0000
  H   H4        1.0  0.7683611027896404  0.45240116165950894  0.8469494614691939  1.0000
  H   H5        1.0  0.2522954251617193  0.579944864846766  0.43246969021856785  1.0000
  H   H6        1.0  0.9029285702854395  0.5849669417366385  0.45680753141641617  1.0000
  H   H7        1.0  0.10843589529395103  0.9832894364371896  0.5478986958041787  1.0000
  H   H8        1.0  0.5533334016799927  0.28303896472789347  0.3492122311145067  1.0000
  H   H9        1.0  0.516143643297255  0.647039657458663  0.634686135686934  1.0000
  H   H10       1.0  0.9186806287616491  0.9173376560211182  0.7704455517232418  1.0000
  C   C1        1.0  0.44282159209251404  0.1327415257692337  0.9117136942222714  1.0000
  C   C2        1.0  0.6712930172216147  0.790670670568943  0.2026008753455244  1.0000
  O   O1        1.0  0.8547854870557785  0.9350732937455177  0.36819466203451157  1.0000
  O   O2        1.0  0.10288671031594276  0.8433016684139147  0.26717242336599156  1.0000
  O   O3        1.0  0.5184900416061282  0.9966010948701296  0.24179629189893603  1.0000
  O   O4        1.0  0.41973874624818563  0.06316930544562638  0.8418642387259752  1.0000
  O   O5        1.0  0.47369213713682257  0.5219162649009377  0.7264999422768597  1.0000
  O   O6        1.0  0.7851828764542006  0.6220094745513052  0.7050071899720933  1.0000
  O   O7        1.0  0.7900442592799664  0.9359077191911638  0.9562132084392942  1.0000
  O   O8        1.0  0.6015652965288609  0.7174304251093417  0.860378639321425  1.0000
  O   O9        1.0  0.622524952981621  0.6916998219676316  0.7633993371855468  1.0000
  O   O10       1.0  0.08961181016638875  0.8387042002868839  0.4922515526704956  1.0000
  O   O11       1.0  0.3182864623668138  0.7642895980679896  0.643489014248189  1.0000
  O   O12       1.0  0.00989263148221653  0.3720972198061645  0.6737650780705735  1.0000
  O   O13       1.0  0.2840500697493553  0.09083412610925734  0.2414448820054531  1.0000
  O   O14       1.0  0.6886855931952596  0.00523645943030715  0.040106809232383966  1.0000
data_image100
_chemical_formula_structural       Pr2P2H10C2O14
_chemical_formula_sum              "Pr2 P2 H10 C2 O14"
_cell_length_a       6.761788999999999
_cell_length_b       7.146483751908908
_cell_length_c       7.843598011864962
_cell_angle_alpha    110.54253585495134
_cell_angle_beta     95.79501476046597
_cell_angle_gamma    89.49575901902455

_space_group_name_H-M_alt    "P 1"
_space_group_IT_number       1

loop_
  _space_group_symop_operation_xyz
  'x, y, z'

loop_
  _atom_site_type_symbol
  _atom_site_label
  _atom_site_symmetry_multiplicity
  _atom_site_fract_x
  _atom_site_fract_y
  _atom_site_fract_z
  _atom_site_occupancy
  Pr  Pr1       1.0  0.8308950592763722  0.19710704870522022  0.6317056718544336  1.0000
  Pr  Pr2       1.0  0.9277816873509437  0.6534406952559948  0.8247253801673651  1.0000
  P   P1        1.0  0.8359169065952301  0.8316639649565332  0.07889765873551369  1.0000
  P   P2        1.0  0.41646257042884827  0.9784530848264694  0.9977104365825653  1.0000
  H   H1        1.0  0.6395755056291819  0.1378627009689808  0.47634719172492623  1.0000
  H   H2        1.0  0.39076879899948835  0.8281806586310267  0.281133234500885  1.0000
  H   H3        1.0  0.6505108512938023  0.6492796540260315  0.5760383107699454  1.0000
  H   H4        1.0  0.30011929757893085  0.5908742044121027  0.7170257028774358  1.0000
  H   H5        1.0  0.3558674557134509  0.6508668726310134  0.6286102379672229  1.0000
  H   H6        1.0  0.6221887469291687  0.05674075521528721  0.7508372431620955  1.0000
  H   H7        1.0  0.5316049829125404  0.21738099679350853  0.15693610906600952  1.0000
  H   H8        1.0  0.48661838099360466  0.013825227273628116  0.7744412557221949  1.0000
  H   H9        1.0  0.8208591639995575  0.1175224781036377  0.8615650478750467  1.0000
  H   H10       1.0  0.46349714137613773  0.20061800256371498  0.9546536765992641  1.0000
  C   C1        1.0  0.8913234798237681  0.3175459038466215  0.28988193813711405  1.0000
  C   C2        1.0  0.348549205227755  0.2665875924285501  0.3246859392384067  1.0000
  O   O1        1.0  0.5657448004931211  0.46090986393392086  0.26756977289915085  1.0000
  O   O2        1.0  0.8109964993782341  0.26632634561974555  0.9055771108251065  1.0000
  O   O3        1.0  0.16360828082542866  0.28566650608263444  0.03632124315481633  1.0000
  O   O4        1.0  0.6299386993050575  0.22307938826270401  0.8679053185041994  1.0000
  O   O5        1.0  0.31015620537800714  0.0014635332627221942  0.01472766202641651  1.0000
  O   O6        1.0  0.8803906752145849  0.24778970936313272  0.47032097980263643  1.0000
  O   O7        1.0  0.9332256517373025  0.7642654087394476  0.7500285666319542  1.0000
  O   O8        1.0  0.49505037802737206  0.03109524946194142  0.6630021038436098  1.0000
  O   O9        1.0  0.735229131532833  0.5119457009714097  0.8141862398479134  1.0000
  O   O10       1.0  0.8985213829437271  0.8478565023979172  0.7124413140991237  1.0000
  O   O11       1.0  0.9822539982997114  0.49466808400757145  0.6728281448595226  1.0000
  O   O12       1.0  0.7995973139913986  0.3294397545978427  0.6438814924331382  1.0000
  O   O13       1.0  0.6567421210929751  0.37148887757211924  0.6960887419991195  1.0000
  O   O14       1.0  0.47861595219001174  0.2444324924144894  0.22671255515888333  1.0000
data_image101
_chemical_formula_structural       Pr2P2H10C2O14
_chemical_formula_sum              "Pr2 P2 H10 C2 O14"
_cell_length_a       6.761788999999999
_cell_length_b       7.146483751908908
_cell_length_c       7.843598011864962
_cell_angle_alpha    110.54253585495134
_cell_angle_beta     95.79501476046597
_cell_angle_gamma    89.49575901902455

_space_group_name_H-M_alt    "P 1"
_space_group_IT_number       1

loop_
  _space_group_symop_operation_xyz
  'x, y, z'

loop_
  _atom_site_type_symbol
  _atom_site_label
  _atom_site_symmetry_multiplicity
  _atom_site_fract_x
  _atom_site_fract_y
  _atom_site_fract_z
  _atom_site_occupancy
  Pr  Pr1       1.0  0.6752276900224388  0.8169023487716913  0.4281102351815207  1.0000
  Pr  Pr2       1.0  0.13517992105334997  0.02105739340186119  0.039447992108762264  1.0000
  P   P1        1.0  0.5874113440513611  0.35684263869188726  0.8641153648495674  1.0000
  P   P2        1.0  0.8604250177741051  0.740315705537796  0.7566741164773703  1.0000
  H   H1        1.0  0.7380094341933727  0.14423330686986446  0.13553812145255506  1.0000
  H   H2        1.0  0.3713036710396409  0.42055393662303686  0.1724613569676876  1.0000
  H   H3        1.0  0.6616669073700905  0.6339639229699969  0.22553586028516293  1.0000
  H   H4        1.0  0.3060894915834069  0.016589494422078133  0.04953198356088251  1.0000
  H   H5        1.0  0.7825694987550378  0.8419379820115864  0.8018557117320597  1.0000
  H   H6        1.0  0.3892281502485275  0.12013467587530613  0.13635589741170406  1.0000
  H   H7        1.0  0.9357922542840242  0.3672005031257868  0.9747595461085439  1.0000
  H   H8        1.0  0.649586908519268  0.9055290413089097  0.4763864683918655  1.0000
  H   H9        1.0  0.43038371158763766  0.4490950144827366  0.8592873150482774  1.0000
  H   H10       1.0  0.2585105523467064  0.27883385121822357  0.06067470461130142  1.0000
  C   C1        1.0  0.890816817060113  0.6229733508080244  0.12916305428370833  1.0000
  C   C2        1.0  0.76279892178718  0.7167155398055911  0.7228734213858843  1.0000
  O   O1        1.0  0.44764372566714883  0.7405673395842314  0.4793839678168297  1.0000
  O   O2        1.0  0.6892284071072936  0.5437531069619581  0.9314418263384141  1.0000
  O   O3        1.0  0.787659949506633  0.852879934507655  0.6149725854629651  1.0000
  O   O4        1.0  0.43587010400369763  0.7278942000120878  0.4596885875798762  1.0000
  O   O5        1.0  0.38946884573670104  0.8848557400051504  0.7154170623398386  1.0000
  O   O6        1.0  0.24306713097030297  0.3613452559802681  0.7647827932960354  1.0000
  O   O7        1.0  0.9344405508600175  0.8253430146723986  0.6474838485009968  1.0000
  O   O8        1.0  0.695398249081336  0.45275302382651716  0.13225568589405157  1.0000
  O   O9        1.0  0.49770712526515126  0.3089137466158718  0.1810282573569566  1.0000
  O   O10       1.0  0.2107909390470013  0.21659979276591912  0.07887547338032164  1.0000
  O   O11       1.0  0.870005643897457  0.7300538251874968  0.5363301417673938  1.0000
  O   O12       1.0  0.6331551897892496  0.5903825849527493  0.20844047563150525  1.0000
  O   O13       1.0  0.8658662745729089  0.4609881911892444  0.8913401169702411  1.0000
  O   O14       1.0  0.2255848057102412  0.5753655016887933  0.14840709004784003  1.0000
data_image102
_chemical_formula_structural       Pr2P2H10C2O14
_chemical_formula_sum              "Pr2 P2 H10 C2 O14"
_cell_length_a       6.761788999999999
_cell_length_b       7.146483751908908
_cell_length_c       7.843598011864962
_cell_angle_alpha    110.54253585495134
_cell_angle_beta     95.79501476046597
_cell_angle_gamma    89.49575901902455

_space_group_name_H-M_alt    "P 1"
_space_group_IT_number       1

loop_
  _space_group_symop_operation_xyz
  'x, y, z'

loop_
  _atom_site_type_symbol
  _atom_site_label
  _atom_site_symmetry_multiplicity
  _atom_site_fract_x
  _atom_site_fract_y
  _atom_site_fract_z
  _atom_site_occupancy
  Pr  Pr1       1.0  0.7247138870880008  0.5350517816841602  0.11238152221631026  1.0000
  Pr  Pr2       1.0  0.5711014345288277  0.44353367760777473  0.10336736962199211  1.0000
  P   P1        1.0  0.6125655919313431  0.7647623203229159  0.20091446489095688  1.0000
  P   P2        1.0  0.5682472065091133  0.6163953542709351  0.2838352099061012  1.0000
  H   H1        1.0  0.7042823070660233  0.543205451220274  0.9226680337451398  1.0000
  H   H2        1.0  0.7867789072915912  0.626364603638649  0.8877728767693043  1.0000
  H   H3        1.0  0.534882977604866  0.22077679634094238  0.07116428064182401  1.0000
  H   H4        1.0  0.3311254130676389  0.4289665278047323  0.7655980633571744  1.0000
  H   H5        1.0  0.8390853237360716  0.9684076644480228  0.4123443509452045  1.0000
  H   H6        1.0  0.2864299640059471  0.7553014638833702  0.023151283152401447  1.0000
  H   H7        1.0  0.6508639939129353  0.6893923357129097  0.8387460932135582  1.0000
  H   H8        1.0  0.5431238785386086  0.30293067975435406  0.8421055141370744  1.0000
  H   H9        1.0  0.7308841994963586  0.16433055512607098  0.418898643925786  1.0000
  H   H10       1.0  0.90200499817729  0.16841086000204086  0.5126982405781746  1.0000
  C   C1        1.0  0.024704314302653074  0.9395016450434923  0.7030542599968612  1.0000
  C   C2        1.0  0.8479524484137073  0.07990611996501684  0.7174467848672066  1.0000
  O   O1        1.0  0.5029776315204799  0.923584196716547  0.45587771385908127  1.0000
  O   O2        1.0  0.5043680095113814  0.035156849247869104  0.8458931716158986  1.0000
  O   O3        1.0  0.5900964381871745  0.3508471786190057  0.2847536896588281  1.0000
  O   O4        1.0  0.15817889291793108  0.3928455060813576  0.3581826186273247  1.0000
  O   O5        1.0  0.5437903449055739  0.6172773652942851  0.6378483398584649  1.0000
  O   O6        1.0  0.41634550027083606  0.10255776299163699  0.6683308581705205  1.0000
  O   O7        1.0  0.8984491662122309  0.2857456672936678  0.4905285213608295  1.0000
  O   O8        1.0  0.6964676398783922  0.8227541976375505  0.9225310925394297  1.0000
  O   O9        1.0  0.6928099091164768  0.3596448090393096  0.9325332010630518  1.0000
  O   O10       1.0  0.4210136701585725  0.05486056377412751  0.3651051360357087  1.0000
  O   O11       1.0  0.09346505056964816  0.9975225079106167  0.7421452516282443  1.0000
  O   O12       1.0  0.9359062818984967  0.5072624810272828  0.22609009663574398  1.0000
  O   O13       1.0  0.977874512784183  0.8644607372116297  0.3388540530577302  1.0000
  O   O14       1.0  0.08860114892013371  0.16154492762871087  0.9917726152198156  1.0000
data_image103
_chemical_formula_structural       Pr2P2H10C2O14
_chemical_formula_sum              "Pr2 P2 H10 C2 O14"
_cell_length_a       6.761788999999999
_cell_length_b       7.146483751908908
_cell_length_c       7.843598011864962
_cell_angle_alpha    110.54253585495134
_cell_angle_beta     95.79501476046597
_cell_angle_gamma    89.49575901902455

_space_group_name_H-M_alt    "P 1"
_space_group_IT_number       1

loop_
  _space_group_symop_operation_xyz
  'x, y, z'

loop_
  _atom_site_type_symbol
  _atom_site_label
  _atom_site_symmetry_multiplicity
  _atom_site_fract_x
  _atom_site_fract_y
  _atom_site_fract_z
  _atom_site_occupancy
  Pr  Pr1       1.0  0.49497545836493373  0.5668410416692495  0.167758863652125  1.0000
  Pr  Pr2       1.0  0.9137195367366076  0.06062133237719536  0.25687406957149506  1.0000
  P   P1        1.0  0.2137185037136078  0.7096735094673932  0.6920151039958  1.0000
  P   P2        1.0  0.48475150763988495  0.6509651690721512  0.18145650066435337  1.0000
  H   H1        1.0  0.5591667154803872  0.3028483195230365  0.20984088629484177  1.0000
  H   H2        1.0  0.16361420135945082  0.5171464709565043  0.7571295835077763  1.0000
  H   H3        1.0  0.29893186688423157  0.3705473020672798  0.12860944122076035  1.0000
  H   H4        1.0  0.3660911964252591  0.5579627784900367  0.5864751595072448  1.0000
  H   H5        1.0  0.8028233670629561  0.22816138924099505  0.10851193312555552  1.0000
  H   H6        1.0  0.4349423795938492  0.3433856985066086  0.9504083283245564  1.0000
  H   H7        1.0  0.5166734792292118  0.09935056883841753  0.3554915264248848  1.0000
  H   H8        1.0  0.3688943199813366  0.6943495532032102  0.20211459510028362  1.0000
  H   H9        1.0  0.2682891031727195  0.9627623781561852  0.2379781547933817  1.0000
  H   H10       1.0  0.5354887247085571  0.02729872241616249  0.8756872676312923  1.0000
  C   C1        1.0  0.2696192688308656  0.7885976359248161  0.740334028378129  1.0000
  C   C2        1.0  0.9711348356213421  0.5281450552865863  0.09571107616648078  1.0000
  O   O1        1.0  0.7026479598134756  0.7087597921490669  0.9304342418909073  1.0000
  O   O2        1.0  0.3047724296338856  0.4024157524618204  0.06445732737483922  1.0000
  O   O3        1.0  0.3109416489023715  0.2269962088757893  0.9320677856449038  1.0000
  O   O4        1.0  0.4814765644259751  0.01711818785406649  0.07574240094982088  1.0000
  O   O5        1.0  0.22301517671439797  0.17162440427637193  0.47122200881130993  1.0000
  O   O6        1.0  0.06329512281809002  0.7145232907496393  0.9086663809139282  1.0000
  O   O7        1.0  0.2591032567434013  0.9275367106311023  0.11351246002595872  1.0000
  O   O8        1.0  0.9004788742167875  0.7645196355879307  0.46962125500431284  1.0000
  O   O9        1.0  0.4511660293210298  0.6064291032962501  0.0527614364400506  1.0000
  O   O10       1.0  0.9523847029777244  0.880184622888919  0.9443079455231782  1.0000
  O   O11       1.0  0.05100063851568848  0.8157217565640167  0.6226698974060128  1.0000
  O   O12       1.0  0.08148909197188914  0.9082442931830883  0.48152236570604146  1.0000
  O   O13       1.0  0.6598870642483234  0.9404845095705241  0.5925998711027205  1.0000
  O   O14       1.0  0.798782326746732  0.8590835770592093  0.7707119440892711  1.0000
data_image104
_chemical_formula_structural       Pr2P2H10C2O14
_chemical_formula_sum              "Pr2 P2 H10 C2 O14"
_cell_length_a       6.761788999999999
_cell_length_b       7.146483751908908
_cell_length_c       7.843598011864962
_cell_angle_alpha    110.54253585495134
_cell_angle_beta     95.79501476046597
_cell_angle_gamma    89.49575901902455

_space_group_name_H-M_alt    "P 1"
_space_group_IT_number       1

loop_
  _space_group_symop_operation_xyz
  'x, y, z'

loop_
  _atom_site_type_symbol
  _atom_site_label
  _atom_site_symmetry_multiplicity
  _atom_site_fract_x
  _atom_site_fract_y
  _atom_site_fract_z
  _atom_site_occupancy
  Pr  Pr1       1.0  0.16929541109129786  0.3615463748574257  0.3779295357380761  1.0000
  Pr  Pr2       1.0  0.35963630490005016  0.36808906123042107  0.307090325281024  1.0000
  P   P1        1.0  0.17614257335662842  0.3263755068182945  0.48573070019483566  1.0000
  P   P2        1.0  0.9123570770025253  0.143208846449852  0.030716313049197197  1.0000
  H   H1        1.0  0.5335433864966035  0.2852820288389921  0.6938651781529188  1.0000
  H   H2        1.0  0.22457975149154663  0.9609462413936853  0.8603486083447933  1.0000
  H   H3        1.0  0.7316691093146801  0.20973603706806898  0.7430549445562065  1.0000
  H   H4        1.0  0.020816685631871223  0.5537803615443408  0.8453400474973023  1.0000
  H   H5        1.0  0.8865072554908693  0.11866303789429367  0.7636738154105842  1.0000
  H   H6        1.0  0.27759852074086666  0.08252134616486728  0.9403648814186454  1.0000
  H   H7        1.0  0.6209938433021307  0.8181557888165116  0.04534723795950413  1.0000
  H   H8        1.0  0.6568970046937466  0.8373289520386606  0.5902483677491546  1.0000
  H   H9        1.0  0.35353851364925504  0.16932244040071964  0.7918420312926173  1.0000
  H   H10       1.0  0.68535409681499  0.8935897648334503  0.12001744285225868  1.0000
  C   C1        1.0  0.33177374582737684  0.19054587557911873  0.5852490155957639  1.0000
  C   C2        1.0  0.4588501137914136  0.24966340768150985  0.8076345171721186  1.0000
  O   O1        1.0  0.5788985271938145  0.7937950994819403  0.9577449150383472  1.0000
  O   O2        1.0  0.16695736767724156  0.30166730443306733  0.46888285715249367  1.0000
  O   O3        1.0  0.9204131155274808  0.11387570112856338  0.9877352709881961  1.0000
  O   O4        1.0  0.2635017139837146  0.44734504842199385  0.8092207685112953  1.0000
  O   O5        1.0  0.013132489752024412  0.9698125254071783  0.4120959285646677  1.0000
  O   O6        1.0  0.18014862469863147  0.4903255351819098  0.10083352611400187  1.0000
  O   O7        1.0  0.6832510679960251  0.687901409342885  0.670221583917737  1.0000
  O   O8        1.0  0.33117362996563315  0.8802770788315684  0.36429401907662395  1.0000
  O   O9        1.0  0.09083998086862266  0.7086642282083631  0.5514961623121053  1.0000
  O   O10       1.0  0.6435034583555534  0.7387858641450293  0.7981680619413964  1.0000
  O   O11       1.0  0.16027069906704128  0.7470107526751235  0.8346897477604216  1.0000
  O   O12       1.0  0.20202472401433624  0.09044502931647003  0.2288720578653738  1.0000
  O   O13       1.0  0.054146875627338886  0.3378723133355379  0.0068718502297997475  1.0000
  O   O14       1.0  0.9636641386896372  0.8717283911537379  0.5902486965060234  1.0000
data_image105
_chemical_formula_structural       Pr2P2H10C2O14
_chemical_formula_sum              "Pr2 P2 H10 C2 O14"
_cell_length_a       6.761788999999999
_cell_length_b       7.146483751908908
_cell_length_c       7.843598011864962
_cell_angle_alpha    110.54253585495134
_cell_angle_beta     95.79501476046597
_cell_angle_gamma    89.49575901902455

_space_group_name_H-M_alt    "P 1"
_space_group_IT_number       1

loop_
  _space_group_symop_operation_xyz
  'x, y, z'

loop_
  _atom_site_type_symbol
  _atom_site_label
  _atom_site_symmetry_multiplicity
  _atom_site_fract_x
  _atom_site_fract_y
  _atom_site_fract_z
  _atom_site_occupancy
  Pr  Pr1       1.0  0.8470807755365968  0.56702471524477  0.17010362791188527  1.0000
  Pr  Pr2       1.0  0.3952991422265768  0.2091316320002079  0.2522244956344366  1.0000
  P   P1        1.0  0.571465015411377  0.39518550550565124  0.11095806211233139  1.0000
  P   P2        1.0  0.514496460556984  0.11769771575927734  0.744103666394949  1.0000
  H   H1        1.0  0.931251778267324  0.060007244348526  0.6380313155241311  1.0000
  H   H2        1.0  0.3935359222814441  0.27022750675678253  0.8001623898744583  1.0000
  H   H3        1.0  0.2855621203780174  0.22850237879902124  0.7268219632096589  1.0000
  H   H4        1.0  0.3162308279424906  0.2355339084751904  0.050665394053794444  1.0000
  H   H5        1.0  0.45512618124485016  0.9151766346767545  0.712190939579159  1.0000
  H   H6        1.0  0.6223094575107098  0.6253100107423961  0.4008746324107051  1.0000
  H   H7        1.0  0.7945421021431684  0.8067984897643328  0.9313348978757858  1.0000
  H   H8        1.0  0.22621985152363777  0.2364815839100629  0.712332849856466  1.0000
  H   H9        1.0  0.09789603669196367  0.09474729374051094  0.7646200628951192  1.0000
  H   H10       1.0  0.05622787959873676  0.32929621264338493  0.39676108956336975  1.0000
  C   C1        1.0  0.5380896627902985  0.7238449864089489  0.07240806613117456  1.0000
  C   C2        1.0  0.5161289235111326  0.8219967442564666  0.8110581368455314  1.0000
  O   O1        1.0  0.4758547837845981  0.600140567868948  0.4356570206582546  1.0000
  O   O2        1.0  0.2115869065746665  0.9869207709671173  0.14610401371464832  1.0000
  O   O3        1.0  0.7364815365290269  0.3049833583791042  0.5696291177300736  1.0000
  O   O4        1.0  0.39797769486904144  0.9315588208846748  0.5671079668682069  1.0000
  O   O5        1.0  0.4452329237246886  0.36744724679738283  0.26082536834292114  1.0000
  O   O6        1.0  0.2770096418680623  0.31919924868270755  0.7666730600176379  1.0000
  O   O7        1.0  0.44605381321161985  0.9519895794801414  0.03667969422531314  1.0000
  O   O8        1.0  0.8285033329157159  0.12837133067660034  0.3990646827587625  1.0000
  O   O9        1.0  0.9661497892811894  0.8657027606386691  0.0847529610618949  1.0000
  O   O10       1.0  0.7557449216255918  0.31435942166717723  0.6576986711006612  1.0000
  O   O11       1.0  0.9833329202374443  0.10553900490049273  0.5528953293105587  1.0000
  O   O12       1.0  0.25914821692276746  0.46721549425274134  0.22748196008615196  1.0000
  O   O13       1.0  0.7323160627856851  0.8362709027715027  0.26074992632493377  1.0000
  O   O14       1.0  0.34081426449120045  0.5466227217111737  0.5051175933331251  1.0000
data_image106
_chemical_formula_structural       Pr2P2H10C2O14
_chemical_formula_sum              "Pr2 P2 H10 C2 O14"
_cell_length_a       6.761788999999999
_cell_length_b       7.146483751908908
_cell_length_c       7.843598011864962
_cell_angle_alpha    110.54253585495134
_cell_angle_beta     95.79501476046597
_cell_angle_gamma    89.49575901902455

_space_group_name_H-M_alt    "P 1"
_space_group_IT_number       1

loop_
  _space_group_symop_operation_xyz
  'x, y, z'

loop_
  _atom_site_type_symbol
  _atom_site_label
  _atom_site_symmetry_multiplicity
  _atom_site_fract_x
  _atom_site_fract_y
  _atom_site_fract_z
  _atom_site_occupancy
  Pr  Pr1       1.0  0.2636258867569268  0.4111016094684601  0.33688273798907176  1.0000
  Pr  Pr2       1.0  0.4127282239496708  0.7527754344046116  0.45697885751724243  1.0000
  P   P1        1.0  0.9391671717166901  0.34728859830647707  0.23301706463098526  1.0000
  P   P2        1.0  0.7625958770513535  0.03545142710208893  0.7283015567809343  1.0000
  H   H1        1.0  0.8792109377682209  0.004640687257051468  0.7413644632324576  1.0000
  H   H2        1.0  0.30155123956501484  0.0778747322037816  0.8130636885762215  1.0000
  H   H3        1.0  0.9314457103610039  0.9324638023972511  0.16829385701566935  1.0000
  H   H4        1.0  0.202558652497828  0.8772699143737555  0.0544633207609877  1.0000
  H   H5        1.0  0.8713282407261431  0.5298506047111005  0.9067947445437312  1.0000
  H   H6        1.0  0.04172338917851448  0.07731695869006217  0.6495560612529516  1.0000
  H   H7        1.0  0.6061939690262079  0.4628108888864517  0.09220604039728642  1.0000
  H   H8        1.0  0.4284905269742012  0.6406610676785931  0.25816003512591124  1.0000
  H   H9        1.0  0.718449120875448  0.5572176184505224  0.5059566153213382  1.0000
  H   H10       1.0  0.6245076339691877  0.9665814377367496  0.5044580958783627  1.0000
  C   C1        1.0  0.01942934701219201  0.6546074748039246  0.2795122324023396  1.0000
  C   C2        1.0  0.4860663110157475  0.06814837292768061  0.4340268724481575  1.0000
  O   O1        1.0  0.9501096862368286  0.09981248527765274  0.7299331575632095  1.0000
  O   O2        1.0  0.37519385991618037  0.11532743517454946  0.7006819615198765  1.0000
  O   O3        1.0  0.2109872130677104  0.7273078982689185  0.3119048837106675  1.0000
  O   O4        1.0  0.3791678794659674  0.07515331823378801  0.9614939857274294  1.0000
  O   O5        1.0  0.9553380326833576  0.7440095244091935  0.4675571364350617  1.0000
  O   O6        1.0  0.1766435612225905  0.8874428006820381  0.3378015936468728  1.0000
  O   O7        1.0  0.30997629556804895  0.46844794834032655  0.38256805820856243  1.0000
  O   O8        1.0  0.4832428307272494  0.2227910392684862  0.5041489814466331  1.0000
  O   O9        1.0  0.6643479864578694  0.23590619396418333  0.7375762204173952  1.0000
  O   O10       1.0  0.6888997633941472  0.36268415849190205  0.36525910190539435  1.0000
  O   O11       1.0  0.6879331561503932  0.2589441690361127  0.652377528429497  1.0000
  O   O12       1.0  0.5328316338418517  0.8175120902014896  0.0012976935831829906  1.0000
  O   O13       1.0  0.4679355323314667  0.567761292681098  0.7253499403595924  1.0000
  O   O14       1.0  0.507734231185168  0.3503327516373247  0.2642716137925163  1.0000
data_image107
_chemical_formula_structural       Pr2P2H10C2O14
_chemical_formula_sum              "Pr2 P2 H10 C2 O14"
_cell_length_a       6.761788999999999
_cell_length_b       7.146483751908908
_cell_length_c       7.843598011864962
_cell_angle_alpha    110.54253585495134
_cell_angle_beta     95.79501476046597
_cell_angle_gamma    89.49575901902455

_space_group_name_H-M_alt    "P 1"
_space_group_IT_number       1

loop_
  _space_group_symop_operation_xyz
  'x, y, z'

loop_
  _atom_site_type_symbol
  _atom_site_label
  _atom_site_symmetry_multiplicity
  _atom_site_fract_x
  _atom_site_fract_y
  _atom_site_fract_z
  _atom_site_occupancy
  Pr  Pr1       1.0  0.7697666720487177  0.22656307369470596  0.769028572132811  1.0000
  Pr  Pr2       1.0  0.20431875064969063  0.5763041488826275  0.9751038514077663  1.0000
  P   P1        1.0  0.1332552582025528  0.6150640058331192  0.32878627628088  1.0000
  P   P2        1.0  0.47727930545806885  0.0797678530216217  0.6885117013007402  1.0000
  H   H1        1.0  0.7784377560019493  0.9797863997519016  0.2395205134525895  1.0000
  H   H2        1.0  0.21153356228023767  0.1358328452333808  0.9290663003921509  1.0000
  H   H3        1.0  0.6932613588869572  0.3624471938237548  0.2590710800141096  1.0000
  H   H4        1.0  0.06040819175541401  0.16902061644941568  0.04222140507772565  1.0000
  H   H5        1.0  0.22704879939556122  0.9179953204002231  0.5844800914637744  1.0000
  H   H6        1.0  0.38355598226189613  0.5385529806371778  0.23603467363864183  1.0000
  H   H7        1.0  0.28376380167901516  0.06932291202247143  0.47769642621278763  1.0000
  H   H8        1.0  0.027864720672369003  0.08275693724863231  0.824326362926513  1.0000
  H   H9        1.0  0.44660383742302656  0.7182159032672644  0.027678266167640686  1.0000
  H   H10       1.0  0.186202896758914  0.04530172049999237  0.5451949387788773  1.0000
  C   C1        1.0  0.8642775192856789  0.6470247097313404  0.3266964571084827  1.0000
  C   C2        1.0  0.3769345923210494  0.1083807721734047  0.06058289867360145  1.0000
  O   O1        1.0  0.08724989974871278  0.10681066662073135  0.33191031217575073  1.0000
  O   O2        1.0  0.0033286907710134983  0.8785187561297789  0.7735678906246903  1.0000
  O   O3        1.0  0.26428092061541975  0.6472028574498836  0.5594272303860635  1.0000
  O   O4        1.0  0.43161884183064103  0.4629710630979389  0.697431375272572  1.0000
  O   O5        1.0  0.8336492710513994  0.8747281866963021  0.8064058781601489  1.0000
  O   O6        1.0  0.40260403929278255  0.36983401514589787  0.09550406795460731  1.0000
  O   O7        1.0  0.49658586038276553  0.3822262017056346  0.5853940779925324  1.0000
  O   O8        1.0  0.10859007528051734  0.22978962305933237  0.96304071850318  1.0000
  O   O9        1.0  0.6767338395584375  0.6011441450100392  0.9272580821998417  1.0000
  O   O10       1.0  0.8093520007096231  0.488765531394165  0.4751906772435177  1.0000
  O   O11       1.0  0.10292919748462737  0.8135180619719904  0.49299272592179477  1.0000
  O   O12       1.0  0.8736846600368153  0.9470352838980034  0.6753878922900185  1.0000
  O   O13       1.0  0.43998274859040976  0.9826727558393031  0.5689817992970347  1.0000
  O   O14       1.0  0.5669208746403456  0.7660273059736937  0.35314711881801486  1.0000
data_image108
_chemical_formula_structural       Pr2P2H10C2O14
_chemical_formula_sum              "Pr2 P2 H10 C2 O14"
_cell_length_a       6.761788999999999
_cell_length_b       7.146483751908908
_cell_length_c       7.843598011864962
_cell_angle_alpha    110.54253585495134
_cell_angle_beta     95.79501476046597
_cell_angle_gamma    89.49575901902455

_space_group_name_H-M_alt    "P 1"
_space_group_IT_number       1

loop_
  _space_group_symop_operation_xyz
  'x, y, z'

loop_
  _atom_site_type_symbol
  _atom_site_label
  _atom_site_symmetry_multiplicity
  _atom_site_fract_x
  _atom_site_fract_y
  _atom_site_fract_z
  _atom_site_occupancy
  Pr  Pr1       1.0  0.7429319256916642  0.7211019992828369  0.23319770370289916  1.0000
  Pr  Pr2       1.0  0.1477080751210451  0.7688010297715664  0.5174326151609421  1.0000
  P   P1        1.0  0.7352746278047562  0.762986330781132  0.06661606580018997  1.0000
  P   P2        1.0  0.013265959918498993  0.05539041757583618  0.21465683355927467  1.0000
  H   H1        1.0  0.5898046270012856  0.008778976276516914  0.30769046070054173  1.0000
  H   H2        1.0  0.8315010508522391  0.8025616873055696  0.3681625947356224  1.0000
  H   H3        1.0  0.15894895792007446  0.6045588972046971  0.3697736174799502  1.0000
  H   H4        1.0  0.9827739093452692  0.5474294400773942  0.26386548043228686  1.0000
  H   H5        1.0  0.814005209133029  0.45702736894600093  0.9638461694121361  1.0000
  H   H6        1.0  0.22289543598890305  0.751302448567003  0.9039124734699726  1.0000
  H   H7        1.0  0.13840595073997974  0.593101292848587  0.6541084069758654  1.0000
  H   H8        1.0  0.03908556327223778  0.26449688186403364  0.6920958012342453  1.0000
  H   H9        1.0  0.9329737378284335  0.2729499265551567  0.8385362531989813  1.0000
  H   H10       1.0  0.1300694476813078  0.008251640945672989  0.016629107296466827  1.0000
  C   C1        1.0  0.4580164956860244  0.3401701021939516  0.45392201049253345  1.0000
  C   C2        1.0  0.4195780357113108  0.8811953850090504  0.8357762662926689  1.0000
  O   O1        1.0  0.4184155100956559  0.08725601248443127  0.6878045126795769  1.0000
  O   O2        1.0  0.15945105394348502  0.6961390600627055  0.20085903850122122  1.0000
  O   O3        1.0  0.7081859154859558  0.2763159062305931  0.48569928214419633  1.0000
  O   O4        1.0  0.03840709151700139  0.773040866246447  0.9970701830461621  1.0000
  O   O5        1.0  0.8751728599891067  0.5810987309669144  0.2594829860609025  1.0000
  O   O6        1.0  0.22968563984613866  0.9166605188511312  0.6409828374744393  1.0000
  O   O7        1.0  0.42262864066287875  0.200130851007998  0.4673798275180161  1.0000
  O   O8        1.0  0.3921179632889107  0.14383100962731987  0.3336716384292231  1.0000
  O   O9        1.0  0.20214591920375824  0.5523194200359285  0.19707835256122053  1.0000
  O   O10       1.0  0.7861588925588876  0.985068604524713  0.46315677698294166  1.0000
  O   O11       1.0  0.29434597317595035  0.4915573465113994  0.5412430082797073  1.0000
  O   O12       1.0  0.7977980131981894  0.6875872958917171  0.8486519788857549  1.0000
  O   O13       1.0  0.5704207206144929  0.9916145736351609  0.6415535449050367  1.0000
  O   O14       1.0  0.0778616713359952  0.6579805314540863  0.2869967893930152  1.0000
data_image109
_chemical_formula_structural       Pr2P2H10C2O14
_chemical_formula_sum              "Pr2 P2 H10 C2 O14"
_cell_length_a       6.761788999999999
_cell_length_b       7.146483751908908
_cell_length_c       7.843598011864962
_cell_angle_alpha    110.54253585495134
_cell_angle_beta     95.79501476046597
_cell_angle_gamma    89.49575901902455

_space_group_name_H-M_alt    "P 1"
_space_group_IT_number       1

loop_
  _space_group_symop_operation_xyz
  'x, y, z'

loop_
  _atom_site_type_symbol
  _atom_site_label
  _atom_site_symmetry_multiplicity
  _atom_site_fract_x
  _atom_site_fract_y
  _atom_site_fract_z
  _atom_site_occupancy
  Pr  Pr1       1.0  0.4531762758269906  0.06022917665541172  0.7837590965209529  1.0000
  Pr  Pr2       1.0  0.8033266235142946  0.5309584140777588  0.6913538854569197  1.0000
  P   P1        1.0  0.9327911138534546  0.7739255842752755  0.3399968147277832  1.0000
  P   P2        1.0  0.46167001128196716  0.026699483394622803  0.5779945887625217  1.0000
  H   H1        1.0  0.4742518961429596  0.4556905794888735  0.33307665260508657  1.0000
  H   H2        1.0  0.29840959422290325  0.5961313787847757  0.550584863871336  1.0000
  H   H3        1.0  0.11824794113636017  0.45930778700858355  0.5636476771906018  1.0000
  H   H4        1.0  0.8856256101280451  0.09577107522636652  0.02523851813748479  1.0000
  H   H5        1.0  0.2883270843885839  0.08226337959058583  0.3991215215064585  1.0000
  H   H6        1.0  0.20259924605488777  0.6721114028478041  0.6543030114844441  1.0000
  H   H7        1.0  0.2527125161141157  0.08995204232633114  0.6521696578711271  1.0000
  H   H8        1.0  0.6355886831879616  0.41679821972502396  0.7517331587150693  1.0000
  H   H9        1.0  0.5233020735904574  0.8738327380269766  0.8964376151561737  1.0000
  H   H10       1.0  0.586887652054429  0.14256146922707558  0.8054074235260487  1.0000
  C   C1        1.0  0.17036469420418143  0.24483569338917732  0.391430807299912  1.0000
  C   C2        1.0  0.3260151572758332  0.04119375627487898  0.3496509863762185  1.0000
  O   O1        1.0  0.3533770735375583  0.3563146572560072  0.5368104726076126  1.0000
  O   O2        1.0  0.7001555627211928  0.8733462825912284  0.4597560238398728  1.0000
  O   O3        1.0  0.44526182347908616  0.5540411101392237  0.6400607981486246  1.0000
  O   O4        1.0  0.6485520484857261  0.8439714082051069  0.8846503428649157  1.0000
  O   O5        1.0  0.2342027829727158  0.4145887211780064  0.672291865805164  1.0000
  O   O6        1.0  0.8325628783786669  0.37664103973656893  0.7836731283459812  1.0000
  O   O7        1.0  0.8486229642294347  0.02616897225379944  0.8893334316671826  1.0000
  O   O8        1.0  0.516592756495811  0.003398819360882044  0.7707753058639355  1.0000
  O   O9        1.0  0.047691358253359795  0.6877798642963171  0.06130109238438308  1.0000
  O   O10       1.0  0.17917958699399605  0.22994903253857046  0.16354128590319306  1.0000
  O   O11       1.0  0.030856706900522113  0.4497731891751755  0.4255377290828619  1.0000
  O   O12       1.0  0.21240186307113618  0.7431075968779624  0.5116137664299458  1.0000
  O   O13       1.0  0.28457021433860064  0.9152958760969341  0.8304027197882533  1.0000
  O   O14       1.0  0.07290651649236679  0.3812809798400849  0.03581099142320454  1.0000
data_image110
_chemical_formula_structural       Pr2P2H10C2O14
_chemical_formula_sum              "Pr2 P2 H10 C2 O14"
_cell_length_a       6.761788999999999
_cell_length_b       7.146483751908908
_cell_length_c       7.843598011864962
_cell_angle_alpha    110.54253585495134
_cell_angle_beta     95.79501476046597
_cell_angle_gamma    89.49575901902455

_space_group_name_H-M_alt    "P 1"
_space_group_IT_number       1

loop_
  _space_group_symop_operation_xyz
  'x, y, z'

loop_
  _atom_site_type_symbol
  _atom_site_label
  _atom_site_symmetry_multiplicity
  _atom_site_fract_x
  _atom_site_fract_y
  _atom_site_fract_z
  _atom_site_occupancy
  Pr  Pr1       1.0  0.08391000144183636  0.7997000236064196  0.8152102984022349  1.0000
  Pr  Pr2       1.0  0.11772648431360722  0.9866785332560539  0.8366331234574318  1.0000
  P   P1        1.0  0.12507353723049164  0.10675763431936502  0.8878556564450264  1.0000
  P   P2        1.0  0.43861450254917145  0.17719997465610504  0.3758882563561201  1.0000
  H   H1        1.0  0.03438583388924599  0.5014593005180359  0.9779408881440759  1.0000
  H   H2        1.0  0.743471666239202  0.16925157234072685  0.33726202696561813  1.0000
  H   H3        1.0  0.6317096054553986  0.2355390004813671  0.8361657988280058  1.0000
  H   H4        1.0  0.608240264467895  0.15811481978744268  0.6954891011118889  1.0000
  H   H5        1.0  0.3845736254006624  0.6485386814456433  0.8229716555215418  1.0000
  H   H6        1.0  0.520732443779707  0.3880838733166456  0.7025902383029461  1.0000
  H   H7        1.0  0.5202074572443962  0.6899236179888248  0.5885513182729483  1.0000
  H   H8        1.0  0.15229706838726997  0.6394293123739772  0.8892984013073146  1.0000
  H   H9        1.0  0.7676882455125451  0.7712255362421274  0.7007485749199986  1.0000
  H   H10       1.0  0.6461034771054983  0.6666364818811417  0.8550814054906368  1.0000
  C   C1        1.0  0.27014186698943377  0.34757231548428535  0.5194737664423883  1.0000
  C   C2        1.0  0.7225183745031245  0.7857922073453665  0.20365283591672778  1.0000
  O   O1        1.0  0.7052343324758112  0.8261098600924015  0.03341803327202797  1.0000
  O   O2        1.0  0.1661379705183208  0.40989009295299184  0.6116922501514637  1.0000
  O   O3        1.0  0.5688498020172119  0.5183088623307412  0.5267350587528199  1.0000
  O   O4        1.0  0.4043633434921503  0.7722661816515028  0.05619077500887215  1.0000
  O   O5        1.0  0.216594620491378  0.8266997480532154  0.4288159632124007  1.0000
  O   O6        1.0  0.7031691373558715  0.6789591792039573  0.589997552044224  1.0000
  O   O7        1.0  0.8563907844945788  0.5680609671398997  0.28858399426098913  1.0000
  O   O8        1.0  0.6065884156851098  0.7608780458103865  0.8085084717313293  1.0000
  O   O9        1.0  0.11205261154100299  0.42612131917849183  0.8801904942374676  1.0000
  O   O10       1.0  0.010037894651759416  0.9242477355874144  0.5723804195877165  1.0000
  O   O11       1.0  0.4049918369855732  0.0765629876696039  0.4527943983557634  1.0000
  O   O12       1.0  0.8894277546787634  0.5914587248116732  0.17749054287560284  1.0000
  O   O13       1.0  0.7792869107797742  0.9531537815928459  0.9598878449760377  1.0000
  O   O14       1.0  0.2440086924470961  0.4259044365026057  0.759359770338051  1.0000
data_image111
_chemical_formula_structural       Pr2P2H10C2O14
_chemical_formula_sum              "Pr2 P2 H10 C2 O14"
_cell_length_a       6.761788999999999
_cell_length_b       7.146483751908908
_cell_length_c       7.843598011864962
_cell_angle_alpha    110.54253585495134
_cell_angle_beta     95.79501476046597
_cell_angle_gamma    89.49575901902455

_space_group_name_H-M_alt    "P 1"
_space_group_IT_number       1

loop_
  _space_group_symop_operation_xyz
  'x, y, z'

loop_
  _atom_site_type_symbol
  _atom_site_label
  _atom_site_symmetry_multiplicity
  _atom_site_fract_x
  _atom_site_fract_y
  _atom_site_fract_z
  _atom_site_occupancy
  Pr  Pr1       1.0  0.6299860291182995  0.27861670032143593  0.07883924914281693  1.0000
  Pr  Pr2       1.0  0.27255801297724247  0.17963843792676926  0.7682301700115204  1.0000
  P   P1        1.0  0.4035356193780899  0.46273752115666866  0.7828880921006203  1.0000
  P   P2        1.0  0.7024769186973572  0.6193322539329529  0.9789332021027803  1.0000
  H   H1        1.0  0.23855492286384106  0.046891773119568825  0.08344112150371075  1.0000
  H   H2        1.0  0.2626911913976073  0.4898637495934963  0.985862921923399  1.0000
  H   H3        1.0  0.9582992568612099  0.2920446302741766  0.19724322110414505  1.0000
  H   H4        1.0  0.005903260782361031  0.8778481390327215  0.4284475282765925  1.0000
  H   H5        1.0  0.20478239189833403  0.2370015843771398  0.7833204255439341  1.0000
  H   H6        1.0  0.7316817939281464  0.6727395914494991  0.9348464133217931  1.0000
  H   H7        1.0  0.8486380409449339  0.5328292157500982  0.39876328967511654  1.0000
  H   H8        1.0  0.7635738290846348  0.11320404201978818  0.061746243853121996  1.0000
  H   H9        1.0  0.06445504166185856  0.34465928189456463  0.027517748065292835  1.0000
  H   H10       1.0  0.25695718079805374  0.8681167811155319  0.602787971496582  1.0000
  C   C1        1.0  0.8720758710987866  0.997951976954937  0.9287856547161937  1.0000
  C   C2        1.0  0.9782000480336137  0.24979680636897683  0.5628364561707713  1.0000
  O   O1        1.0  0.10826527420431376  0.23645267821848392  0.9905565157532692  1.0000
  O   O2        1.0  0.4146993849426508  0.34669706904423947  0.6416527183155267  1.0000
  O   O3        1.0  0.44515817950014025  0.07304141877102666  0.2927033450687304  1.0000
  O   O4        1.0  0.8749462766572833  0.007252611219882965  0.04036039765924215  1.0000
  O   O5        1.0  0.4490940351970494  0.992228901013732  0.44082851125858724  1.0000
  O   O6        1.0  0.15514462999999523  0.977255642414093  0.46288181317504495  1.0000
  O   O7        1.0  0.08044048957526684  0.07634318619966507  0.38430761676863767  1.0000
  O   O8        1.0  0.8365247922483832  0.5426229857839644  0.7880774132136139  1.0000
  O   O9        1.0  0.8860008739866316  0.47852282132953405  0.16058923373930156  1.0000
  O   O10       1.0  0.7092804763524327  0.9898149954387918  0.26791358075570315  1.0000
  O   O11       1.0  0.2832358329324052  0.010966674279188737  0.6092456544574816  1.0000
  O   O12       1.0  0.8455941191641614  0.04017396760173142  0.740351026179269  1.0000
  O   O13       1.0  0.09504915401339531  0.882989291800186  0.6319150943309069  1.0000
  O   O14       1.0  0.6357724787667394  0.24244552245363593  0.2554393418831751  1.0000
data_image112
_chemical_formula_structural       Pr2P2H10C2O14
_chemical_formula_sum              "Pr2 P2 H10 C2 O14"
_cell_length_a       6.761788999999999
_cell_length_b       7.146483751908908
_cell_length_c       7.843598011864962
_cell_angle_alpha    110.54253585495134
_cell_angle_beta     95.79501476046597
_cell_angle_gamma    89.49575901902455

_space_group_name_H-M_alt    "P 1"
_space_group_IT_number       1

loop_
  _space_group_symop_operation_xyz
  'x, y, z'

loop_
  _atom_site_type_symbol
  _atom_site_label
  _atom_site_symmetry_multiplicity
  _atom_site_fract_x
  _atom_site_fract_y
  _atom_site_fract_z
  _atom_site_occupancy
  Pr  Pr1       1.0  0.4151321556419134  0.9478784762322903  0.27617407974321395  1.0000
  Pr  Pr2       1.0  0.47438562847673893  0.8799038492143154  0.19019906036555767  1.0000
  P   P1        1.0  0.023486316204071045  0.8631305075250566  0.06424244493246078  1.0000
  P   P2        1.0  0.5723608732223511  0.02652868628501892  0.878140302374959  1.0000
  H   H1        1.0  0.12077621743083  0.21472254395484924  0.014924317365512252  1.0000
  H   H2        1.0  0.580765257589519  0.6705838497728109  0.1299108900129795  1.0000
  H   H3        1.0  0.9185124114155769  0.4135739440098405  0.9316303180530667  1.0000
  H   H4        1.0  0.6672760285437107  0.32069231290370226  0.4722370090894401  1.0000
  H   H5        1.0  0.5040304996073246  0.2823274617549032  0.0074812257662415504  1.0000
  H   H6        1.0  0.2077718898653984  0.11329102702438831  0.39864330645650625  1.0000
  H   H7        1.0  0.9922745227813721  0.2928949221968651  0.6784383356571198  1.0000
  H   H8        1.0  0.7063897363841534  0.7764028538367711  0.806283145211637  1.0000
  H   H9        1.0  0.40330580808222294  0.42910180427134037  0.7534600142389536  1.0000
  H   H10       1.0  0.5309470985084772  0.6266489066183567  0.08135854452848434  1.0000
  C   C1        1.0  0.27134720236063004  0.12385143339633942  0.30154201085679233  1.0000
  C   C2        1.0  0.7155811720294878  0.9134421974886209  0.5839697570772842  1.0000
  O   O1        1.0  0.7938950047828257  0.9867116343230009  0.04890173673629761  1.0000
  O   O2        1.0  0.9867008272558451  0.40786187513003824  0.02085577172692865  1.0000
  O   O3        1.0  0.47553992457687855  0.6306053368607536  0.20910303393611684  1.0000
  O   O4        1.0  0.49522739462554455  0.5802967548370361  0.6090067648328841  1.0000
  O   O5        1.0  0.7751322751864791  0.105657845037058  0.8736834400333464  1.0000
  O   O6        1.0  0.8909885478205979  0.1327857067808509  0.25758095527999103  1.0000
  O   O7        1.0  0.8841663249768317  0.5765892053022981  0.14618682878790423  1.0000
  O   O8        1.0  0.28938810457475483  0.46006806707009673  0.9966729305597255  1.0000
  O   O9        1.0  0.040053814416751266  0.8476789949927479  0.4180648133624345  1.0000
  O   O10       1.0  0.944600930204615  0.4424190220888704  0.3657221250468865  1.0000
  O   O11       1.0  0.2902980607468635  0.5123021870094817  0.3588189956790302  1.0000
  O   O12       1.0  0.4782159284222871  0.9523350745439529  0.9745888242032379  1.0000
  O   O13       1.0  0.3175288578495383  0.9518231444526464  0.6328006638213992  1.0000
  O   O14       1.0  0.7625546683557332  0.8438368705101311  0.6877488110912964  1.0000
data_image113
_chemical_formula_structural       Pr2P2H10C2O14
_chemical_formula_sum              "Pr2 P2 H10 C2 O14"
_cell_length_a       6.761788999999999
_cell_length_b       7.146483751908908
_cell_length_c       7.843598011864962
_cell_angle_alpha    110.54253585495134
_cell_angle_beta     95.79501476046597
_cell_angle_gamma    89.49575901902455

_space_group_name_H-M_alt    "P 1"
_space_group_IT_number       1

loop_
  _space_group_symop_operation_xyz
  'x, y, z'

loop_
  _atom_site_type_symbol
  _atom_site_label
  _atom_site_symmetry_multiplicity
  _atom_site_fract_x
  _atom_site_fract_y
  _atom_site_fract_z
  _atom_site_occupancy
  Pr  Pr1       1.0  0.25961588229984045  0.4775474779307842  0.6546678977319971  1.0000
  Pr  Pr2       1.0  0.17023134604096413  0.8407257795333862  0.13583763502538204  1.0000
  P   P1        1.0  0.5182359963655472  0.7503510983660817  0.8693366274237633  1.0000
  P   P2        1.0  0.7735564112663269  0.9706380516290665  0.6005396116524935  1.0000
  H   H1        1.0  0.37064543552696705  0.1345124300569296  0.6585909337736666  1.0000
  H   H2        1.0  0.2873892867937684  0.273430947214365  0.5820274241268635  1.0000
  H   H3        1.0  0.44055501744151115  0.7460639774799347  0.6011297823861241  1.0000
  H   H4        1.0  0.828746167011559  0.2739374814555049  0.3811251277802512  1.0000
  H   H5        1.0  0.48454448487609625  0.8148495270870626  0.4085891875438392  1.0000
  H   H6        1.0  0.8215711023658514  0.7194817052222788  0.38359536696225405  1.0000
  H   H7        1.0  0.0998290553689003  0.6508344449102879  0.19794145785272121  1.0000
  H   H8        1.0  0.989450391381979  0.1479946244508028  0.7684221807867289  1.0000
  H   H9        1.0  0.23819510638713837  0.24911674857139587  0.2920310106128454  1.0000
  H   H10       1.0  0.6470281817018986  0.8356682993471622  0.7689498066902161  1.0000
  C   C1        1.0  0.2685246206820011  0.030776076018810272  0.26746754930354655  1.0000
  C   C2        1.0  0.011629485496087  0.965939303394407  0.905767624033615  1.0000
  O   O1        1.0  0.31072531221434474  0.6363823506981134  0.3713153190910816  1.0000
  O   O2        1.0  0.4311191071756184  0.1919486922561191  0.9043907280138228  1.0000
  O   O3        1.0  0.033957646577619016  0.004984717321349308  0.798190151428571  1.0000
  O   O4        1.0  0.3134293179027736  0.8224386445945129  0.6697467069607228  1.0000
  O   O5        1.0  0.41401333059184253  0.41705198597628623  0.8838219319004565  1.0000
  O   O6        1.0  0.9121772499056533  0.963363847695291  0.5994837081525475  1.0000
  O   O7        1.0  0.9861809583380818  0.54306431254372  0.1400514681590721  1.0000
  O   O8        1.0  0.4710559656377882  0.7456358836498111  0.7152614484512014  1.0000
  O   O9        1.0  0.5340124689973891  0.6624312086496502  0.7163234858307987  1.0000
  O   O10       1.0  0.3464212056424003  0.562888664426282  0.6904312189435586  1.0000
  O   O11       1.0  0.4375857039121911  0.6708597463439219  0.6969194640987553  1.0000
  O   O12       1.0  0.5408524461090565  0.3983524942304939  0.472835207125172  1.0000
  O   O13       1.0  0.11378981545567513  0.6440006829798222  0.9377959636040032  1.0000
  O   O14       1.0  0.6820172099396586  0.08834035554900765  0.5133601407287642  1.0000
data_image114
_chemical_formula_structural       Pr2P2H10C2O14
_chemical_formula_sum              "Pr2 P2 H10 C2 O14"
_cell_length_a       6.761788999999999
_cell_length_b       7.146483751908908
_cell_length_c       7.843598011864962
_cell_angle_alpha    110.54253585495134
_cell_angle_beta     95.79501476046597
_cell_angle_gamma    89.49575901902455

_space_group_name_H-M_alt    "P 1"
_space_group_IT_number       1

loop_
  _space_group_symop_operation_xyz
  'x, y, z'

loop_
  _atom_site_type_symbol
  _atom_site_label
  _atom_site_symmetry_multiplicity
  _atom_site_fract_x
  _atom_site_fract_y
  _atom_site_fract_z
  _atom_site_occupancy
  Pr  Pr1       1.0  0.5406169267371297  0.5619215946644545  0.9150282695190981  1.0000
  Pr  Pr2       1.0  0.004398718476295471  0.15287993475794792  0.7516383472830057  1.0000
  P   P1        1.0  0.7684283703565598  0.7495671114884317  0.9652959331870079  1.0000
  P   P2        1.0  0.21431434154510498  0.5401461124420166  0.12726645544171333  1.0000
  H   H1        1.0  0.4064929410815239  0.5412029689177871  0.917234546970576  1.0000
  H   H2        1.0  0.8986147316172719  0.4565661698579788  0.5435940995812416  1.0000
  H   H3        1.0  0.05121712014079094  0.9980050399899483  0.9457335406914353  1.0000
  H   H4        1.0  0.830890073440969  0.6394646549597383  0.39260601010755636  1.0000
  H   H5        1.0  0.9398869872093201  0.3284629345871508  0.16665176255628467  1.0000
  H   H6        1.0  0.4286460131406784  0.6686831703409553  0.9412250379100442  1.0000
  H   H7        1.0  0.9034489542245865  0.5779666677117348  0.5539666432887316  1.0000
  H   H8        1.0  0.23269189149141312  0.8709084427682683  0.5243297517299652  1.0000
  H   H9        1.0  0.5134607115760446  0.1102161817252636  0.3903543772175908  1.0000
  H   H10       1.0  0.4717789478600025  0.07284471392631531  0.8341928198933601  1.0000
  C   C1        1.0  0.2636977513320744  0.06413359194993973  0.2170987199060619  1.0000
  C   C2        1.0  0.4248167622135952  0.1138000376522541  0.9399226242676377  1.0000
  O   O1        1.0  0.7604183852672577  0.79117969609797  0.7072637900710106  1.0000
  O   O2        1.0  0.4091909909620881  0.5442614364583278  0.9950788407586515  1.0000
  O   O3        1.0  0.7360402087215334  0.6119672530912794  0.08441113572916947  1.0000
  O   O4        1.0  0.453957328107208  0.48790765658486634  0.5625263541005552  1.0000
  O   O5        1.0  0.7768928150180727  0.6749615462031215  0.49100361368618906  1.0000
  O   O6        1.0  0.2069353639963083  0.7575179832056165  0.6262233633315191  1.0000
  O   O7        1.0  0.22251974046230316  0.20805113576352596  0.07917439698940143  1.0000
  O   O8        1.0  0.3011496722465381  0.3897490280214697  0.21608000310516218  1.0000
  O   O9        1.0  0.9894502572715282  0.41018523764796555  0.9172401761170477  1.0000
  O   O10       1.0  0.016470542876049876  0.4670248230686411  0.17583184549584985  1.0000
  O   O11       1.0  0.4499118336243555  0.9139315154170617  0.050186013540951535  1.0000
  O   O12       1.0  0.601026882766746  0.5458786182571203  0.15959369693882763  1.0000
  O   O13       1.0  0.2907338635995984  0.0748273404315114  0.40361302765086293  1.0000
  O   O14       1.0  0.039496708661317825  0.19049932505004108  0.38139390852302313  1.0000
data_image115
_chemical_formula_structural       Pr2P2H10C2O14
_chemical_formula_sum              "Pr2 P2 H10 C2 O14"
_cell_length_a       6.761788999999999
_cell_length_b       7.146483751908908
_cell_length_c       7.843598011864962
_cell_angle_alpha    110.54253585495134
_cell_angle_beta     95.79501476046597
_cell_angle_gamma    89.49575901902455

_space_group_name_H-M_alt    "P 1"
_space_group_IT_number       1

loop_
  _space_group_symop_operation_xyz
  'x, y, z'

loop_
  _atom_site_type_symbol
  _atom_site_label
  _atom_site_symmetry_multiplicity
  _atom_site_fract_x
  _atom_site_fract_y
  _atom_site_fract_z
  _atom_site_occupancy
  Pr  Pr1       1.0  0.4024835219606757  0.5488129239529371  0.26951540110167116  1.0000
  Pr  Pr2       1.0  0.5437272116541862  0.32710136473178864  0.7993824258446693  1.0000
  P   P1        1.0  0.9185369163751602  0.2543004541657865  0.9773605689406395  1.0000
  P   P2        1.0  0.5879136770963669  0.9313858151435852  0.28605117090046406  1.0000
  H   H1        1.0  0.053105028346180916  0.37216493766754866  0.29775625513866544  1.0000
  H   H2        1.0  0.4540040185675025  0.6645666565746069  0.8643310070037842  1.0000
  H   H3        1.0  0.22560112178325653  0.6758753284811974  0.9730741204693913  1.0000
  H   H4        1.0  0.2326555922627449  0.025196620263159275  0.5605000784271397  1.0000
  H   H5        1.0  0.38592143543064594  0.282634116942063  0.7722655404359102  1.0000
  H   H6        1.0  0.12521019019186497  0.6852233943063766  0.053264785557985306  1.0000
  H   H7        1.0  0.08663980104029179  0.3651942852884531  0.6608365215361118  1.0000
  H   H8        1.0  0.13860638067126274  0.6951589619275182  0.4571000747382641  1.0000
  H   H9        1.0  0.19657444953918457  0.2874704357236624  0.4671410033479333  1.0000
  H   H10       1.0  0.9064636062830687  0.03279516473412514  0.5490575730800629  1.0000
  C   C1        1.0  0.512372073251754  0.8791617807000875  0.25683386507444084  1.0000
  C   C2        1.0  0.7308936029439792  0.7789363577030599  0.811115505406633  1.0000
  O   O1        1.0  0.3070451710373163  0.8474964611232281  0.6670090816915035  1.0000
  O   O2        1.0  0.18087044823914766  0.1405383200471988  0.6989265666925348  1.0000
  O   O3        1.0  0.2579156517749652  0.7269093968498055  0.032210411329288036  1.0000
  O   O4        1.0  0.19348222156986594  0.43917283532209694  0.12293923133984208  1.0000
  O   O5        1.0  0.6265697390772402  0.5015075634000823  0.6703478265553713  1.0000
  O   O6        1.0  0.8142442208481953  0.8028025166131556  0.5827277297503315  1.0000
  O   O7        1.0  0.7328725070692599  0.6713736839592457  0.2928531285142526  1.0000
  O   O8        1.0  0.8905985747696832  0.9982014955021441  0.8895691932266345  1.0000
  O   O9        1.0  0.5312396406661719  0.37920189066790044  0.5267371090594679  1.0000
  O   O10       1.0  0.31689902069047093  0.0899618974654004  0.6451625284971669  1.0000
  O   O11       1.0  0.6345425503095612  0.2634184205380734  0.20116961986059323  1.0000
  O   O12       1.0  0.47099352185614407  0.07620763778686523  0.6255563250742853  1.0000
  O   O13       1.0  0.39928537188097835  0.4510125955566764  0.841723998542875  1.0000
  O   O14       1.0  0.15697641531005502  0.5344740874134004  0.5182214011438191  1.0000
data_image116
_chemical_formula_structural       Pr2P2H10C2O14
_chemical_formula_sum              "Pr2 P2 H10 C2 O14"
_cell_length_a       6.761788999999999
_cell_length_b       7.146483751908908
_cell_length_c       7.843598011864962
_cell_angle_alpha    110.54253585495134
_cell_angle_beta     95.79501476046597
_cell_angle_gamma    89.49575901902455

_space_group_name_H-M_alt    "P 1"
_space_group_IT_number       1

loop_
  _space_group_symop_operation_xyz
  'x, y, z'

loop_
  _atom_site_type_symbol
  _atom_site_label
  _atom_site_symmetry_multiplicity
  _atom_site_fract_x
  _atom_site_fract_y
  _atom_site_fract_z
  _atom_site_occupancy
  Pr  Pr1       1.0  0.9657250000163913  0.6345405653119087  0.5433887945255265  1.0000
  Pr  Pr2       1.0  0.6564569640904665  0.9144284091889858  0.026168061420321465  1.0000
  P   P1        1.0  0.6733710616827011  0.19959213770926  0.24941667914390564  1.0000
  P   P2        1.0  0.20734378695487976  0.24149960279464722  0.5387909114360809  1.0000
  H   H1        1.0  0.9717026511207223  0.3869842579588294  0.2833511233329773  1.0000
  H   H2        1.0  0.35231534391641617  0.5689957290887833  0.2323477789759636  1.0000
  H   H3        1.0  0.0747569240629673  0.7246968522667885  0.8861228674650192  1.0000
  H   H4        1.0  0.22244077920913696  0.6716208197176456  0.4222224667901173  1.0000
  H   H5        1.0  0.07286650035530329  0.039501358987763524  0.7728443751111627  1.0000
  H   H6        1.0  0.1824761964380741  0.9228757886448875  0.3118524709716439  1.0000
  H   H7        1.0  0.008834585547447205  0.8885267116129398  0.13218561746180058  1.0000
  H   H8        1.0  0.5366608053445816  0.815397837315686  0.709374450147152  1.0000
  H   H9        1.0  0.8384291166439652  0.41998135298490524  0.6335827354341745  1.0000
  H   H10       1.0  0.3880209606140852  0.505198284983635  0.2986394464969635  1.0000
  C   C1        1.0  0.7571934959851205  0.4753344729542732  0.1579916395712644  1.0000
  C   C2        1.0  0.9124171268194914  0.22234916407614946  0.08879159204661846  1.0000
  O   O1        1.0  0.6578770615160465  0.23815623857080936  0.6981992237269878  1.0000
  O   O2        1.0  0.3937955545261502  0.8460742816096172  0.18002637376775965  1.0000
  O   O3        1.0  0.7681183151435107  0.2279717747878749  0.9499245273473207  1.0000
  O   O4        1.0  0.8183189854025841  0.7422716250875965  0.18628156185150146  1.0000
  O   O5        1.0  0.9064436464104801  0.5698021547868848  0.8969355390872806  1.0000
  O   O6        1.0  0.5888517666608095  0.06404836755245924  0.04475188278593123  1.0000
  O   O7        1.0  0.941876273136586  0.5078194006346166  0.006555474334163591  1.0000
  O   O8        1.0  0.8709455007920042  0.038170146057382226  0.4064853705931455  1.0000
  O   O9        1.0  0.31547513441182673  0.751303601777181  0.25413201260380447  1.0000
  O   O10       1.0  0.9577108434750699  0.27582255040761083  0.13927636481821537  1.0000
  O   O11       1.0  0.6597181796096265  0.7293582884012721  0.8430952530179638  1.0000
  O   O12       1.0  0.5627893601777032  0.22959756152704358  0.8951599071733654  1.0000
  O   O13       1.0  0.06551635591313243  0.9464319830294698  0.8643003236502409  1.0000
  O   O14       1.0  0.6333808633498847  0.02565087890252471  0.41724398359656334  1.0000
data_image117
_chemical_formula_structural       Pr2P2H10C2O14
_chemical_formula_sum              "Pr2 P2 H10 C2 O14"
_cell_length_a       6.761788999999999
_cell_length_b       7.146483751908908
_cell_length_c       7.843598011864962
_cell_angle_alpha    110.54253585495134
_cell_angle_beta     95.79501476046597
_cell_angle_gamma    89.49575901902455

_space_group_name_H-M_alt    "P 1"
_space_group_IT_number       1

loop_
  _space_group_symop_operation_xyz
  'x, y, z'

loop_
  _atom_site_type_symbol
  _atom_site_label
  _atom_site_symmetry_multiplicity
  _atom_site_fract_x
  _atom_site_fract_y
  _atom_site_fract_z
  _atom_site_occupancy
  Pr  Pr1       1.0  0.7475483324378729  0.15807227417826653  0.8897978147724643  1.0000
  Pr  Pr2       1.0  0.3444333039224148  0.3512314222753048  0.3506002202630043  1.0000
  P   P1        1.0  0.7499541789293289  0.09077102458104491  0.6973299980163574  1.0000
  P   P2        1.0  0.3063557893037796  0.0427190363407135  0.5400504264980555  1.0000
  H   H1        1.0  0.9162529846653342  0.5960997529327869  0.6962318755686283  1.0000
  H   H2        1.0  0.19911359995603561  0.0377354621887207  0.564467191696167  1.0000
  H   H3        1.0  0.14858626946806908  0.2599395290017128  0.41440610121935606  1.0000
  H   H4        1.0  0.8904276080429554  0.24849290773272514  0.404118841746822  1.0000
  H   H5        1.0  0.312317936681211  0.7137122140266001  0.541161626111716  1.0000
  H   H6        1.0  0.8406376093626022  0.2393801767611876  0.7704566586762667  1.0000
  H   H7        1.0  0.4326863409951329  0.23986820876598358  0.15213590115308762  1.0000
  H   H8        1.0  0.8723331429064274  0.5407784337876365  0.03624300751835108  1.0000
  H   H9        1.0  0.691349838860333  0.4177902117371559  0.566926465369761  1.0000
  H   H10       1.0  0.36498345620930195  0.43421895429491997  0.7722368761897087  1.0000
  C   C1        1.0  0.19640903593972325  0.2381313256919384  0.007623250363394618  1.0000
  C   C2        1.0  0.3177682525711134  0.08919153455644846  0.06946848798543215  1.0000
  O   O1        1.0  0.9246976189315319  0.4330055993050337  0.505300123244524  1.0000
  O   O2        1.0  0.07213850319385529  0.4033113596669864  0.4142107304360252  1.0000
  O   O3        1.0  0.37769998947624117  0.8302598940499593  0.7936646363523323  1.0000
  O   O4        1.0  0.5899521699175239  0.018813000293448567  0.10770536190830171  1.0000
  O   O5        1.0  0.07840187079273164  0.6826912319520488  0.5202594769652933  1.0000
  O   O6        1.0  0.5003020533476956  0.10567650943994522  0.13162120047491044  1.0000
  O   O7        1.0  0.7967258593998849  0.16165436245501041  0.20031705684959888  1.0000
  O   O8        1.0  0.5507613957161084  0.7131781043717638  0.8851491363893729  1.0000
  O   O9        1.0  0.260776836425066  0.3905347331892699  0.40862741926684976  1.0000
  O   O10       1.0  0.15822703420417383  0.9597388718975708  0.26047551014926285  1.0000
  O   O11       1.0  0.9613940373528749  0.6074774564767722  0.06878605237579904  1.0000
  O   O12       1.0  0.9575763817410916  0.9180639944970608  0.14899194426834583  1.0000
  O   O13       1.0  0.7475654701702297  0.29794938187114894  0.8524795989505947  1.0000
  O   O14       1.0  0.20107645727694035  0.057569125667214394  0.3472227328456938  1.0000
data_image118
_chemical_formula_structural       Pr2P2H10C2O14
_chemical_formula_sum              "Pr2 P2 H10 C2 O14"
_cell_length_a       6.761788999999999
_cell_length_b       7.146483751908908
_cell_length_c       7.843598011864962
_cell_angle_alpha    110.54253585495134
_cell_angle_beta     95.79501476046597
_cell_angle_gamma    89.49575901902455

_space_group_name_H-M_alt    "P 1"
_space_group_IT_number       1

loop_
  _space_group_symop_operation_xyz
  'x, y, z'

loop_
  _atom_site_type_symbol
  _atom_site_label
  _atom_site_symmetry_multiplicity
  _atom_site_fract_x
  _atom_site_fract_y
  _atom_site_fract_z
  _atom_site_occupancy
  Pr  Pr1       1.0  0.5921984678134322  0.1902371123433113  0.38325850712135434  1.0000
  Pr  Pr2       1.0  0.8573688920587301  0.05712937191128731  0.8853362463414669  1.0000
  P   P1        1.0  0.19499100744724274  0.033583665266633034  0.05812402069568634  1.0000
  P   P2        1.0  0.007582634687423706  0.17099864780902863  0.051392728462815285  1.0000
  H   H1        1.0  0.7683306625112891  0.11342377867549658  0.9174257111735642  1.0000
  H   H2        1.0  0.8517208499833941  0.3481475170701742  0.6966319382190704  1.0000
  H   H3        1.0  0.1390693597495556  0.614140878431499  0.6132398620247841  1.0000
  H   H4        1.0  0.168586534447968  0.08034610096365213  0.8382043760502711  1.0000
  H   H5        1.0  0.3484669108875096  0.920325581682846  0.8939541690051556  1.0000
  H   H6        1.0  0.07886455953121185  0.7298932891571894  0.1876587262377143  1.0000
  H   H7        1.0  0.8770376797765493  0.2103200051933527  0.9350987784564495  1.0000
  H   H8        1.0  0.7705469653010368  0.019261645036749542  0.7634222442284226  1.0000
  H   H9        1.0  0.7085196292027831  0.19501350075006485  0.16700762882828712  1.0000
  H   H10       1.0  0.2679725419729948  0.20918269082903862  0.4229021780192852  1.0000
  C   C1        1.0  0.282473252620548  0.2018939070403576  0.7545714499428868  1.0000
  C   C2        1.0  0.7790512894280255  0.5657562203705311  0.7182580782100558  1.0000
  O   O1        1.0  0.8065487700514495  0.43810519576072693  0.8293110467493534  1.0000
  O   O2        1.0  0.12999859359115362  0.33345453938818537  0.01860896043945104  1.0000
  O   O3        1.0  0.20847938780207187  0.9791005599545315  0.8847923816065304  1.0000
  O   O4        1.0  0.18811450526118279  0.5429051265818998  0.4526845132932067  1.0000
  O   O5        1.0  0.2546250643208623  0.15794850944075733  0.8795524926390499  1.0000
  O   O6        1.0  0.09129838482476771  0.4892883999273181  0.3318351938505657  1.0000
  O   O7        1.0  0.9148957477882504  0.8615752588957548  0.7255838957498781  1.0000
  O   O8        1.0  0.6828581694280729  0.5345769698033109  0.8623402712109964  1.0000
  O   O9        1.0  0.6886260195169598  0.12048802361823618  0.13402557699009776  1.0000
  O   O10       1.0  0.6549794499296695  0.19158744881860912  0.7035808702930808  1.0000
  O   O11       1.0  0.0025756501127034426  0.08526129776146263  0.6037852636654861  1.0000
  O   O12       1.0  0.5362816138658673  0.9258793480694294  0.5718995309434831  1.0000
  O   O13       1.0  0.27621890604496  0.3183763527777046  0.865840329322964  1.0000
  O   O14       1.0  0.8240874879993498  0.30099082831293344  0.5214374456554651  1.0000
data_image119
_chemical_formula_structural       Pr2P2H10C2O14
_chemical_formula_sum              "Pr2 P2 H10 C2 O14"
_cell_length_a       6.761788999999999
_cell_length_b       7.146483751908908
_cell_length_c       7.843598011864962
_cell_angle_alpha    110.54253585495134
_cell_angle_beta     95.79501476046597
_cell_angle_gamma    89.49575901902455

_space_group_name_H-M_alt    "P 1"
_space_group_IT_number       1

loop_
  _space_group_symop_operation_xyz
  'x, y, z'

loop_
  _atom_site_type_symbol
  _atom_site_label
  _atom_site_symmetry_multiplicity
  _atom_site_fract_x
  _atom_site_fract_y
  _atom_site_fract_z
  _atom_site_occupancy
  Pr  Pr1       1.0  0.48249903321266174  0.2676000539213419  0.6269562395755202  1.0000
  Pr  Pr2       1.0  0.16695373319089413  0.4581441469490528  0.14675794169306755  1.0000
  P   P1        1.0  0.8354017436504364  0.10900203231722116  0.9644814133644104  1.0000
  P   P2        1.0  0.5219565033912659  0.9579833596944809  0.00891205109655857  1.0000
  H   H1        1.0  0.7861270466819406  0.039620816707611084  0.10751883499324322  1.0000
  H   H2        1.0  0.9633432133123279  0.7101534344255924  0.9502348452806473  1.0000
  H   H3        1.0  0.43896475806832314  0.18066185247153044  0.8724661478772759  1.0000
  H   H4        1.0  0.7527243904769421  0.4206079486757517  0.4004257523920387  1.0000
  H   H5        1.0  0.4557044645771384  0.7969575736206025  0.8033382361754775  1.0000
  H   H6        1.0  0.3107822332531214  0.308711678837426  0.6317268302664161  1.0000
  H   H7        1.0  0.7392447143793106  0.3599528167396784  0.43933334946632385  1.0000
  H   H8        1.0  0.28406545892357826  0.09897688683122396  0.5783813102170825  1.0000
  H   H9        1.0  0.43755716923624277  0.37379151955246925  0.5947099309414625  1.0000
  H   H10       1.0  0.33898092806339264  0.7557263411581516  0.30181214213371277  1.0000
  C   C1        1.0  0.7028810870833695  0.4143525492399931  0.6929440533276647  1.0000
  C   C2        1.0  0.27796280302572995  0.6703378832899034  0.6414270880632102  1.0000
  O   O1        1.0  0.795838984195143  0.8255086503922939  0.2502475120127201  1.0000
  O   O2        1.0  0.40243028523400426  0.886954823276028  0.6919839001784567  1.0000
  O   O3        1.0  0.15656631614547223  0.6762830202642363  0.6211165796848945  1.0000
  O   O4        1.0  0.5403381981886923  0.7679032114101574  0.7957718891557306  1.0000
  O   O5        1.0  0.1788543452275917  0.5813915153266862  0.12007950060069561  1.0000
  O   O6        1.0  0.10334904916817322  0.41158277774229646  0.6837984464946203  1.0000
  O   O7        1.0  0.15754768811166286  0.604075392242521  0.9146659270045348  1.0000
  O   O8        1.0  0.2746518715284765  0.8625067387474701  0.8996767256176099  1.0000
  O   O9        1.0  0.5426777636166662  0.7051955927163363  0.22920432314276695  1.0000
  O   O10       1.0  0.5350367483915761  0.37185883172787726  0.9677768157562241  1.0000
  O   O11       1.0  0.027445910731330514  0.33940833862288855  0.39590646472061053  1.0000
  O   O12       1.0  0.5940583943156525  0.7715876249130815  0.6586898022796959  1.0000
  O   O13       1.0  0.5776831796392798  0.927916168468073  0.44788620714098215  1.0000
  O   O14       1.0  0.8103974750265479  0.05434129782952368  0.13531421730294824  1.0000
data_image120
_chemical_formula_structural       Pr2P2H10C2O14
_chemical_formula_sum              "Pr2 P2 H10 C2 O14"
_cell_length_a       6.761788999999999
_cell_length_b       7.146483751908908
_cell_length_c       7.843598011864962
_cell_angle_alpha    110.54253585495134
_cell_angle_beta     95.79501476046597
_cell_angle_gamma    89.49575901902455

_space_group_name_H-M_alt    "P 1"
_space_group_IT_number       1

loop_
  _space_group_symop_operation_xyz
  'x, y, z'

loop_
  _atom_site_type_symbol
  _atom_site_label
  _atom_site_symmetry_multiplicity
  _atom_site_fract_x
  _atom_site_fract_y
  _atom_site_fract_z
  _atom_site_occupancy
  Pr  Pr1       1.0  0.5488430773839355  0.2592180408537388  0.0660531057510525  1.0000
  Pr  Pr2       1.0  0.7811772581189871  0.5806846022605896  0.03141862340271473  1.0000
  P   P1        1.0  0.20860159397125244  0.12490388890728354  0.5706374943256378  1.0000
  P   P2        1.0  0.7145780175924301  0.028374075889587402  0.5804795622825623  1.0000
  H   H1        1.0  0.6521210912615061  0.3411266338080168  0.8285345388576388  1.0000
  H   H2        1.0  0.22376423608511686  0.07020343281328678  0.8393267542123795  1.0000
  H   H3        1.0  0.5055415667593479  0.17546944972127676  0.23243790678679943  1.0000
  H   H4        1.0  0.6365740727633238  0.5051769912242889  0.9312468554126099  1.0000
  H   H5        1.0  0.8419667691923678  0.7159111110959202  0.753001862205565  1.0000
  H   H6        1.0  0.4373946338891983  0.22297012759372592  0.47363198548555374  1.0000
  H   H7        1.0  0.9100244846194983  0.6198724582791328  0.5131005235016346  1.0000
  H   H8        1.0  0.03354082256555557  0.38243300770409405  0.08291914500296116  1.0000
  H   H9        1.0  0.4273753007873893  0.7614279147237539  0.7258473290130496  1.0000
  H   H10       1.0  0.43788688629865646  0.48106849193573  0.18837693706154823  1.0000
  C   C1        1.0  0.35349671682342887  0.9916703179478645  0.2887513355817646  1.0000
  C   C2        1.0  0.3966491217724979  0.9247576920315623  0.9856016179546714  1.0000
  O   O1        1.0  0.30350229889154434  0.45828291960060596  0.46313218027353287  1.0000
  O   O2        1.0  0.2960749650374055  0.13669628792558797  0.8890471970080398  1.0000
  O   O3        1.0  0.7409384634811431  0.9173793820955325  0.32890477805631235  1.0000
  O   O4        1.0  0.6490467004477978  0.49972456111572683  0.6489150308771059  1.0000
  O   O5        1.0  0.31873944762628525  0.7438716997858137  0.7686615423299372  1.0000
  O   O6        1.0  0.7372434164281003  0.52796173049137  0.43925654055783525  1.0000
  O   O7        1.0  0.5212836735881865  0.05136527633294463  0.23483293782919645  1.0000
  O   O8        1.0  0.48203780851326883  0.25646389834582806  0.51791655892157  1.0000
  O   O9        1.0  0.8831942561082542  0.5426559215411544  0.024991070618852973  1.0000
  O   O10       1.0  0.4652706405031495  0.46171396411955357  0.44408925191964954  1.0000
  O   O11       1.0  0.4853025865741074  0.7145894319401123  0.5649324388650712  1.0000
  O   O12       1.0  0.2401233616983518  0.8478817681316286  0.44234248041175306  1.0000
  O   O13       1.0  0.31518031004816294  0.6147191545460373  0.3993828413076699  1.0000
  O   O14       1.0  0.6973228519782424  0.5066307655069977  0.41256315808277577  1.0000
data_image121
_chemical_formula_structural       Pr2P2H10C2O14
_chemical_formula_sum              "Pr2 P2 H10 C2 O14"
_cell_length_a       6.761788999999999
_cell_length_b       7.146483751908908
_cell_length_c       7.843598011864962
_cell_angle_alpha    110.54253585495134
_cell_angle_beta     95.79501476046597
_cell_angle_gamma    89.49575901902455

_space_group_name_H-M_alt    "P 1"
_space_group_IT_number       1

loop_
  _space_group_symop_operation_xyz
  'x, y, z'

loop_
  _atom_site_type_symbol
  _atom_site_label
  _atom_site_symmetry_multiplicity
  _atom_site_fract_x
  _atom_site_fract_y
  _atom_site_fract_z
  _atom_site_occupancy
  Pr  Pr1       1.0  0.7879187352955341  0.9349015355110168  0.09264652617275715  1.0000
  Pr  Pr2       1.0  0.997562974691391  0.8431936502456665  0.9833383858203888  1.0000
  P   P1        1.0  0.06989552080631256  0.0564704448916018  0.1543920636177063  1.0000
  P   P2        1.0  0.8597851395606995  0.7752659469842911  0.5548458006232977  1.0000
  H   H1        1.0  0.8332651201635599  0.18560246005654335  0.6314644715748727  1.0000
  H   H2        1.0  0.6357296081259847  0.18036173470318317  0.7243572883307934  1.0000
  H   H3        1.0  0.2553388513624668  0.33183544781059027  0.35378485918045044  1.0000
  H   H4        1.0  0.14149200078099966  0.20021806750446558  0.8860426815226674  1.0000
  H   H5        1.0  0.9600578541867435  0.3779981639236212  0.17643305659294128  1.0000
  H   H6        1.0  0.24096773006021976  0.4744573406642303  0.35079282708466053  1.0000
  H   H7        1.0  0.125360363163054  0.5303555391728878  0.2705349214375019  1.0000
  H   H8        1.0  0.14703885838389397  0.962652986170724  0.17231514304876328  1.0000
  H   H9        1.0  0.6960239699110389  0.910877512767911  0.27120992448180914  1.0000
  H   H10       1.0  0.020778406411409378  0.591597642749548  0.9298389442265034  1.0000
  C   C1        1.0  0.2160742967389524  0.3146824352443218  0.40971071110107005  1.0000
  C   C2        1.0  0.707515623071231  0.36949027981609106  0.5474432120099664  1.0000
  O   O1        1.0  0.04025711165741086  0.5952706709504128  0.13628308475017548  1.0000
  O   O2        1.0  0.9785434999503195  0.74166028862237  0.041636181966168806  1.0000
  O   O3        1.0  0.13773670967202634  0.012361787346890196  0.6607352867722511  1.0000
  O   O4        1.0  0.9662061398848891  0.804541337187402  0.08751832053530961  1.0000
  O   O5        1.0  0.052925618598237634  0.18485531711485237  0.8188480791868642  1.0000
  O   O6        1.0  0.15416191454278305  0.08101981319487095  0.7145484825014137  1.0000
  O   O7        1.0  0.17218427080661058  0.47022163635119796  0.2500239245709963  1.0000
  O   O8        1.0  0.37613496754784137  0.3578791383188218  0.7897690772661008  1.0000
  O   O9        1.0  0.9806673182174563  0.9435387554112822  0.4195247672032565  1.0000
  O   O10       1.0  0.5296807698905468  0.3514895089901984  0.8019994527567178  1.0000
  O   O11       1.0  0.9720336926402524  0.305654135736404  0.6990179193962831  1.0000
  O   O12       1.0  0.437486834009178  0.5015574076678604  0.9382316393312067  1.0000
  O   O13       1.0  0.6282653119415045  0.3764199677389115  0.03149664541706443  1.0000
  O   O14       1.0  0.16406879760324955  0.9569884247612208  0.8488346020458266  1.0000
data_image122
_chemical_formula_structural       Pr2P2H10C2O14
_chemical_formula_sum              "Pr2 P2 H10 C2 O14"
_cell_length_a       6.761788999999999
_cell_length_b       7.146483751908908
_cell_length_c       7.843598011864962
_cell_angle_alpha    110.54253585495134
_cell_angle_beta     95.79501476046597
_cell_angle_gamma    89.49575901902455

_space_group_name_H-M_alt    "P 1"
_space_group_IT_number       1

loop_
  _space_group_symop_operation_xyz
  'x, y, z'

loop_
  _atom_site_type_symbol
  _atom_site_label
  _atom_site_symmetry_multiplicity
  _atom_site_fract_x
  _atom_site_fract_y
  _atom_site_fract_z
  _atom_site_occupancy
  Pr  Pr1       1.0  0.465288239531219  0.10988214984536171  0.711403806519229  1.0000
  Pr  Pr2       1.0  0.51628278195858  0.11659601703286171  0.43536391109228134  1.0000
  P   P1        1.0  0.35573868453502655  0.0898590381257236  0.16724088042974472  1.0000
  P   P2        1.0  0.3433239758014679  0.08651773631572723  0.6620747838169336  1.0000
  H   H1        1.0  0.48168046958744526  0.906492012552917  0.02756021684035659  1.0000
  H   H2        1.0  0.6316726505756378  0.5070991907268763  0.41744933649897575  1.0000
  H   H3        1.0  0.39070161059498787  0.9357351781800389  0.3195502841845155  1.0000
  H   H4        1.0  0.3662797836586833  0.8742257747799158  0.08787162660155445  1.0000
  H   H5        1.0  0.9450511438772082  0.9958355852868408  0.991352210752666  1.0000
  H   H6        1.0  0.6231938898563385  0.21692964772228152  0.22060128021985292  1.0000
  H   H7        1.0  0.1593950791284442  0.02521223947405815  0.5576264970004559  1.0000
  H   H8        1.0  0.31055428460240364  0.040838165092282  0.29042098205536604  1.0000
  H   H9        1.0  0.2495038164779544  0.2874090392142534  0.859289669431746  1.0000
  H   H10       1.0  0.05138518661260605  0.671357061713934  0.5572941116988659  1.0000
  C   C1        1.0  0.17818616144359112  0.6432566996663809  0.0031408705981448293  1.0000
  C   C2        1.0  0.37833243957720697  0.8090321198105812  0.13316482631489635  1.0000
  O   O1        1.0  0.5919555169530213  0.5971836764365435  0.5421140789985657  1.0000
  O   O2        1.0  0.009060877840965986  0.524162775487639  0.9980154381191824  1.0000
  O   O3        1.0  0.8740470738848671  0.9870649983349722  0.32622362539405003  1.0000
  O   O4        1.0  0.8442044393159449  0.556335823261179  0.14103430707473308  1.0000
  O   O5        1.0  0.18000407028011978  0.3287365942960605  0.3827526360983029  1.0000
  O   O6        1.0  0.42443719756556675  0.8694121791049838  0.23942360060755163  1.0000
  O   O7        1.0  0.04530856804922223  0.3138287542387843  0.5022176105703693  1.0000
  O   O8        1.0  0.012531720218248665  0.6772448719711974  0.9377974267117679  1.0000
  O   O9        1.0  0.47207168582826853  0.2934883513953537  0.9141293948050588  1.0000
  O   O10       1.0  0.800269395345822  0.8990057383198291  0.4456488167634234  1.0000
  O   O11       1.0  0.03705920034553856  0.1658843412878923  0.7430004021152854  1.0000
  O   O12       1.0  0.6997065637260675  0.03841273998841643  0.6141579570248723  1.0000
  O   O13       1.0  0.44194088224321604  0.8944930620491505  0.329624202568084  1.0000
  O   O14       1.0  0.13814510824158788  0.17225603060796857  0.4805498205823824  1.0000
data_image123
_chemical_formula_structural       Pr2P2H10C2O14
_chemical_formula_sum              "Pr2 P2 H10 C2 O14"
_cell_length_a       6.761788999999999
_cell_length_b       7.146483751908908
_cell_length_c       7.843598011864962
_cell_angle_alpha    110.54253585495134
_cell_angle_beta     95.79501476046597
_cell_angle_gamma    89.49575901902455

_space_group_name_H-M_alt    "P 1"
_space_group_IT_number       1

loop_
  _space_group_symop_operation_xyz
  'x, y, z'

loop_
  _atom_site_type_symbol
  _atom_site_label
  _atom_site_symmetry_multiplicity
  _atom_site_fract_x
  _atom_site_fract_y
  _atom_site_fract_z
  _atom_site_occupancy
  Pr  Pr1       1.0  0.9686451712623239  0.6659405194222927  0.19324024260276929  1.0000
  Pr  Pr2       1.0  0.07030043937265873  0.11558441072702408  0.3121784143149853  1.0000
  P   P1        1.0  0.42372775077819824  0.8052156013436615  0.5661098510026932  1.0000
  P   P2        1.0  0.5537778288125992  0.9483523070812225  0.6285019833594561  1.0000
  H   H1        1.0  0.8598717702552676  0.1352442055940628  0.17872203746810555  1.0000
  H   H2        1.0  0.6543670184910297  0.8486134242266417  0.8946336321532726  1.0000
  H   H3        1.0  0.9849533960223198  0.8185107046738267  0.33101954869925976  1.0000
  H   H4        1.0  0.31367224641144276  0.7054601134732366  0.614077357808128  1.0000
  H   H5        1.0  0.9660662496462464  0.15589861967600882  0.6226292755454779  1.0000
  H   H6        1.0  0.9240164868533611  0.17220379074569792  0.205361170694232  1.0000
  H   H7        1.0  0.6157609913498163  0.8905095122754574  0.2058963105082512  1.0000
  H   H8        1.0  0.8961913287639618  0.5050326779019088  0.5677413451485336  1.0000
  H   H9        1.0  0.002667615655809641  0.9822285287082195  0.16519882064312696  1.0000
  H   H10       1.0  0.032387539744377136  0.4579648934304714  0.1950698271393776  1.0000
  C   C1        1.0  0.003796914592385292  0.055240411311388016  0.325224663130939  1.0000
  C   C2        1.0  0.9337279993342236  0.9542250828817487  0.38465166790410876  1.0000
  O   O1        1.0  0.7870411383919418  0.6366057153791189  0.2320898398756981  1.0000
  O   O2        1.0  0.6305093127302825  0.8082413862575777  0.5423178730125073  1.0000
  O   O3        1.0  0.10264236479997635  0.8235879978747107  0.6523928231326863  1.0000
  O   O4        1.0  0.3820800236426294  0.4834887180477381  0.045005059568211436  1.0000
  O   O5        1.0  0.2676666476763785  0.3115036622621119  0.5171624148497358  1.0000
  O   O6        1.0  0.3159685969585553  0.7663243291899562  0.5523253215942532  1.0000
  O   O7        1.0  0.992458414286375  0.06332134827971458  0.9349159871344455  1.0000
  O   O8        1.0  0.024714762694202363  0.38796510617248714  0.28644715464906767  1.0000
  O   O9        1.0  0.7863396550528705  0.8679142927285284  0.8170250959228724  1.0000
  O   O10       1.0  0.4805036170873791  0.9518257802119479  0.8899018727242947  1.0000
  O   O11       1.0  0.6725520150503144  0.8706547923502512  0.8258858586923452  1.0000
  O   O12       1.0  0.597787280799821  0.9679895844310522  0.8546784443315119  1.0000
  O   O13       1.0  0.14290289487689734  0.0021845095325261354  0.4083640999160707  1.0000
  O   O14       1.0  0.950810918584466  0.06800317903980613  0.5721942518139258  1.0000
data_image124
_chemical_formula_structural       Pr2P2H10C2O14
_chemical_formula_sum              "Pr2 P2 H10 C2 O14"
_cell_length_a       6.761788999999999
_cell_length_b       7.146483751908908
_cell_length_c       7.843598011864962
_cell_angle_alpha    110.54253585495134
_cell_angle_beta     95.79501476046597
_cell_angle_gamma    89.49575901902455

_space_group_name_H-M_alt    "P 1"
_space_group_IT_number       1

loop_
  _space_group_symop_operation_xyz
  'x, y, z'

loop_
  _atom_site_type_symbol
  _atom_site_label
  _atom_site_symmetry_multiplicity
  _atom_site_fract_x
  _atom_site_fract_y
  _atom_site_fract_z
  _atom_site_occupancy
  Pr  Pr1       1.0  0.8208324331790209  0.8650694098323584  0.6578403377789073  1.0000
  Pr  Pr2       1.0  0.7005368042737246  0.2678549811244011  0.36072067730128765  1.0000
  P   P1        1.0  0.602374330163002  0.7857188880443573  0.9214716851711273  1.0000
  P   P2        1.0  0.8793715536594391  0.9991942942142487  0.6159926075488329  1.0000
  H   H1        1.0  0.8042290871962905  0.4639712115749717  0.7912418399937451  1.0000
  H   H2        1.0  0.5050124181434512  0.8756462708115578  0.8564323149621487  1.0000
  H   H3        1.0  0.29124150052666664  0.8143156599253416  0.21593831200152636  1.0000
  H   H4        1.0  0.24639857094734907  0.9204028826206923  0.2122424744302407  1.0000
  H   H5        1.0  0.051347007509320974  0.5677648060955107  0.9157942095771432  1.0000
  H   H6        1.0  0.8753851614892483  0.5423812760855071  0.4133902546018362  1.0000
  H   H7        1.0  0.8759575178846717  0.7605760637670755  0.44736961647868156  1.0000
  H   H8        1.0  0.30434761568903923  0.360388494678773  0.7221120321191847  1.0000
  H   H9        1.0  0.16509629925712943  0.6540734879672527  0.6852165311574936  1.0000
  H   H10       1.0  0.6119342148303986  0.6634411364793777  0.0522364042699337  1.0000
  C   C1        1.0  0.003797108307480812  0.2793988399207592  0.18712187325581908  1.0000
  C   C2        1.0  0.9734117818297818  0.1701461817137897  0.5415108199231327  1.0000
  O   O1        1.0  0.007600789424031973  0.3445935472846031  0.25413498282432556  1.0000
  O   O2        1.0  0.1502757011912763  0.7427126777474768  0.1684504824806936  1.0000
  O   O3        1.0  0.29499240301083773  0.6143484780332074  0.7440468528075144  1.0000
  O   O4        1.0  0.6129686236381531  0.3099642947781831  0.009494326543062925  1.0000
  O   O5        1.0  0.6257592095062137  0.27938052429817617  0.7909773351857439  1.0000
  O   O6        1.0  0.1361582026584074  0.19468011101707816  0.48045907902996987  1.0000
  O   O7        1.0  0.39330358523875475  0.20105467131361365  0.6808735610393342  1.0000
  O   O8        1.0  0.19593711814377457  0.41115129517856985  0.3287637052999344  1.0000
  O   O9        1.0  0.6808133120648563  0.34738589194603264  0.23302222206257284  1.0000
  O   O10       1.0  0.8251856885617599  0.7890654801158234  0.8796728258021176  1.0000
  O   O11       1.0  0.9207361297449097  0.3460957212955691  0.08491879400025937  1.0000
  O   O12       1.0  0.19128617635578848  0.1646952829323709  0.004189204191789031  1.0000
  O   O13       1.0  0.20349277183413506  0.7760903458110988  0.18000382464379072  1.0000
  O   O14       1.0  0.4475354482419789  0.7080206496175379  0.711113172059413  1.0000
data_image125
_chemical_formula_structural       Pr2P2H10C2O14
_chemical_formula_sum              "Pr2 P2 H10 C2 O14"
_cell_length_a       6.761788999999999
_cell_length_b       7.146483751908908
_cell_length_c       7.843598011864962
_cell_angle_alpha    110.54253585495134
_cell_angle_beta     95.79501476046597
_cell_angle_gamma    89.49575901902455

_space_group_name_H-M_alt    "P 1"
_space_group_IT_number       1

loop_
  _space_group_symop_operation_xyz
  'x, y, z'

loop_
  _atom_site_type_symbol
  _atom_site_label
  _atom_site_symmetry_multiplicity
  _atom_site_fract_x
  _atom_site_fract_y
  _atom_site_fract_z
  _atom_site_occupancy
  Pr  Pr1       1.0  0.1379142915830016  0.44302321784198284  0.3714520907960832  1.0000
  Pr  Pr2       1.0  0.5812980327755213  0.6002201624214649  0.4483606182038784  1.0000
  P   P1        1.0  0.5498215556144714  0.5520472708158195  0.8008484840393066  1.0000
  P   P2        1.0  0.17463085055351257  0.9721337258815765  0.6480980403721333  1.0000
  H   H1        1.0  0.3334486596286297  0.700640894472599  0.8176332488656044  1.0000
  H   H2        1.0  0.02813518512994051  0.6153037641197443  0.009968314319849014  1.0000
  H   H3        1.0  0.6740731783211231  0.41862050350755453  0.5655347248539329  1.0000
  H   H4        1.0  0.3039298774674535  0.44365884736180305  0.3424954534275457  1.0000
  H   H5        1.0  0.6354236360639334  0.06587924621999264  0.8404536871239543  1.0000
  H   H6        1.0  0.04258783161640167  0.6641825332771987  0.5949065769091249  1.0000
  H   H7        1.0  0.6329208305105567  0.8364877626299858  0.33313875272870064  1.0000
  H   H8        1.0  0.26672762632369995  0.47071968019008636  0.27554411301389337  1.0000
  H   H9        1.0  0.21264252485707402  0.16831053234636784  0.6978129222989082  1.0000
  H   H10       1.0  0.9678836595267057  0.2239336222410202  0.8323378376662731  1.0000
  C   C1        1.0  0.24648607429116964  0.9792929496616125  0.12190583487972617  1.0000
  C   C2        1.0  0.7743103974498808  0.04950108705088496  0.6043732059188187  1.0000
  O   O1        1.0  0.979314255528152  0.2756030037999153  0.8982839249074459  1.0000
  O   O2        1.0  0.6277486039325595  0.5740107172750868  0.15365799964638427  1.0000
  O   O3        1.0  0.20364639919716865  0.09954103420022875  0.33728822122793645  1.0000
  O   O4        1.0  0.4731254964135587  0.17595202382653952  0.029509597225114703  1.0000
  O   O5        1.0  0.5871120297815651  0.02561816480010748  0.48066506488248706  1.0000
  O   O6        1.0  0.04795715515501797  0.725879589561373  0.2586844314355403  1.0000
  O   O7        1.0  0.18073252635076642  0.7253643302246928  0.1326541246380657  1.0000
  O   O8        1.0  0.27704146574251354  0.8117813012795523  0.5963785990606993  1.0000
  O   O9        1.0  0.4144878340885043  0.7451516631990671  0.9742248975671828  1.0000
  O   O10       1.0  0.634896497009322  0.8127404773840681  0.15358168352395296  1.0000
  O   O11       1.0  0.15801626536995173  0.7311041601351462  0.4695141757174497  1.0000
  O   O12       1.0  0.36650675796045107  0.20803089160472155  0.1457445735577494  1.0000
  O   O13       1.0  0.7936140475794673  0.7885613306425512  0.6389023708179593  1.0000
  O   O14       1.0  0.6962891453877091  0.776211880845949  0.2895193628501147  1.0000
data_image126
_chemical_formula_structural       Pr2P2H10C2O14
_chemical_formula_sum              "Pr2 P2 H10 C2 O14"
_cell_length_a       6.761788999999999
_cell_length_b       7.146483751908908
_cell_length_c       7.843598011864962
_cell_angle_alpha    110.54253585495134
_cell_angle_beta     95.79501476046597
_cell_angle_gamma    89.49575901902455

_space_group_name_H-M_alt    "P 1"
_space_group_IT_number       1

loop_
  _space_group_symop_operation_xyz
  'x, y, z'

loop_
  _atom_site_type_symbol
  _atom_site_label
  _atom_site_symmetry_multiplicity
  _atom_site_fract_x
  _atom_site_fract_y
  _atom_site_fract_z
  _atom_site_occupancy
  Pr  Pr1       1.0  0.08498618192970753  0.29661441035568714  0.9914646702818573  1.0000
  Pr  Pr2       1.0  0.3014187887310982  0.18750207498669624  0.24382977560162544  1.0000
  P   P1        1.0  0.6913603246212006  0.004025159403681755  0.0005492419004440308  1.0000
  P   P2        1.0  0.08406856656074524  0.29267822206020355  0.5228239931166172  1.0000
  H   H1        1.0  0.778277263045311  0.8488240158185363  0.8253314336761832  1.0000
  H   H2        1.0  0.9256064034998417  0.7986080851405859  0.6997011937201023  1.0000
  H   H3        1.0  0.23159128054976463  0.14552681893110275  0.24441365990787745  1.0000
  H   H4        1.0  0.4042554600164294  0.36554308608174324  0.5983239054912701  1.0000
  H   H5        1.0  0.3955434523522854  0.2292884960770607  0.13521088287234306  1.0000
  H   H6        1.0  0.719785688444972  0.4333011926501058  0.8275962378829718  1.0000
  H   H7        1.0  0.9319851864129305  0.6911025382578373  0.3625600226223469  1.0000
  H   H8        1.0  0.7264186404645443  0.7917480664327741  0.2958777016028762  1.0000
  H   H9        1.0  0.4344639191403985  0.7070389296859503  0.08650282118469477  1.0000
  H   H10       1.0  0.9587779808789492  0.8523123972117901  0.37910309061408043  1.0000
  C   C1        1.0  0.9208791786804795  0.95296560972929  0.600859485915862  1.0000
  C   C2        1.0  0.09673425962682813  0.1562822088599205  0.308878761716187  1.0000
  O   O1        1.0  0.8742387858219445  0.5394988432526588  0.247876089066267  1.0000
  O   O2        1.0  0.8742466643452644  0.8773106170992833  0.39804765736334957  1.0000
  O   O3        1.0  0.28945739660412073  0.4891871558793355  0.6981405181577429  1.0000
  O   O4        1.0  0.8817752068862319  0.8296118170255795  0.8149636306334287  1.0000
  O   O5        1.0  0.12119137845002115  0.8812726599862799  0.3854354072827846  1.0000
  O   O6        1.0  0.09789201186504215  0.8573869979009032  0.9127438305295072  1.0000
  O   O7        1.0  0.7915516747161746  0.10082468064501882  0.5062223528511822  1.0000
  O   O8        1.0  0.7615885138511658  0.10736116988118738  0.9666745417634957  1.0000
  O   O9        1.0  0.28313731122761965  0.7218909345101565  0.7644767404999584  1.0000
  O   O10       1.0  0.030917609110474586  0.21081932191736996  0.7767499228939414  1.0000
  O   O11       1.0  0.672564584063366  0.5678354139672592  0.24072520380286733  1.0000
  O   O12       1.0  0.2645325982593931  0.39414026448503137  0.6066533313132823  1.0000
  O   O13       1.0  0.7771821157075465  0.18737816764041781  0.1840753573924303  1.0000
  O   O14       1.0  0.7207474242895842  0.15080944215878844  0.6663084198371507  1.0000
data_image127
_chemical_formula_structural       Pr2P2H10C2O14
_chemical_formula_sum              "Pr2 P2 H10 C2 O14"
_cell_length_a       6.761788999999999
_cell_length_b       7.146483751908908
_cell_length_c       7.843598011864962
_cell_angle_alpha    110.54253585495134
_cell_angle_beta     95.79501476046597
_cell_angle_gamma    89.49575901902455

_space_group_name_H-M_alt    "P 1"
_space_group_IT_number       1

loop_
  _space_group_symop_operation_xyz
  'x, y, z'

loop_
  _atom_site_type_symbol
  _atom_site_label
  _atom_site_symmetry_multiplicity
  _atom_site_fract_x
  _atom_site_fract_y
  _atom_site_fract_z
  _atom_site_occupancy
  Pr  Pr1       1.0  0.3252818761393428  0.7021639551967382  0.044915363017935306  1.0000
  Pr  Pr2       1.0  0.21622581966221333  0.1516154743731022  0.13012072071433067  1.0000
  P   P1        1.0  0.3552159368991852  0.41816180432215333  0.5461678057909012  1.0000
  P   P2        1.0  0.9487222135066986  0.921489879488945  0.41624973341822624  1.0000
  H   H1        1.0  0.8593396423384547  0.44348813872784376  0.7297153305262327  1.0000
  H   H2        1.0  0.19685424584895372  0.14614729396998882  0.6452690325677395  1.0000
  H   H3        1.0  0.42549238726496696  0.7373875873163342  0.06796739250421524  1.0000
  H   H4        1.0  0.343365085311234  0.3304084502160549  0.4939578607445583  1.0000
  H   H5        1.0  0.7206988539546728  0.6586191249080002  0.65109449531883  1.0000
  H   H6        1.0  0.9370871055871248  0.40949714434100315  0.22483330965042114  1.0000
  H   H7        1.0  0.9233058076351881  0.18065705709159374  0.07228482514619827  1.0000
  H   H8        1.0  0.9160791449248791  0.7621074970811605  0.4805591036565602  1.0000
  H   H9        1.0  0.7503580581396818  0.035667816177010536  0.007751866243779659  1.0000
  H   H10       1.0  0.48028638400137424  0.6216859705746174  0.29344185069203377  1.0000
  C   C1        1.0  0.7060147081501782  0.31706045381724834  0.3213753759628162  1.0000
  C   C2        1.0  0.9533732511335984  0.6083758026361465  0.45113324793055654  1.0000
  O   O1        1.0  0.3256406532600522  0.5404264256358147  0.22499289736151695  1.0000
  O   O2        1.0  0.08699652180075645  0.8525809847633354  0.8353231929650065  1.0000
  O   O3        1.0  0.20279173646122217  0.24148772592889145  0.8783883003052324  1.0000
  O   O4        1.0  0.5000879326835275  0.9467456188285723  0.3248682781122625  1.0000
  O   O5        1.0  0.840421861037612  0.7674317907076329  0.03186588024254888  1.0000
  O   O6        1.0  0.5809075536089949  0.1704465406946838  0.8529888322809711  1.0000
  O   O7        1.0  0.16475010151043534  0.3016325058415532  0.33587395516224205  1.0000
  O   O8        1.0  0.34612453827867284  0.7477044073166326  0.8034727172343992  1.0000
  O   O9        1.0  0.6660378882661462  0.318373812828213  0.5773501589428633  1.0000
  O   O10       1.0  0.23518572200555354  0.8750740551622584  0.07244042411912233  1.0000
  O   O11       1.0  0.7460218784399331  0.05131219374015927  0.2881035458012775  1.0000
  O   O12       1.0  0.7229512445919681  0.7186301944311708  0.732469042763114  1.0000
  O   O13       1.0  0.5923931845463812  0.13329440355300903  0.3522603935562074  1.0000
  O   O14       1.0  0.182607916649431  0.08753240364603698  0.6878966761287302  1.0000
data_image128
_chemical_formula_structural       Pr2P2H10C2O14
_chemical_formula_sum              "Pr2 P2 H10 C2 O14"
_cell_length_a       6.761788999999999
_cell_length_b       7.146483751908908
_cell_length_c       7.843598011864962
_cell_angle_alpha    110.54253585495134
_cell_angle_beta     95.79501476046597
_cell_angle_gamma    89.49575901902455

_space_group_name_H-M_alt    "P 1"
_space_group_IT_number       1

loop_
  _space_group_symop_operation_xyz
  'x, y, z'

loop_
  _atom_site_type_symbol
  _atom_site_label
  _atom_site_symmetry_multiplicity
  _atom_site_fract_x
  _atom_site_fract_y
  _atom_site_fract_z
  _atom_site_occupancy
  Pr  Pr1       1.0  0.9129825998097658  0.8167955949902534  0.25225132796913385  1.0000
  Pr  Pr2       1.0  0.2875197660177946  0.8441115990281105  0.5963317137211561  1.0000
  P   P1        1.0  0.9558386504650116  0.5858513596467674  0.5694449245929718  1.0000
  P   P2        1.0  0.31836456060409546  0.0368993878364563  0.30842593451961875  1.0000
  H   H1        1.0  0.37643982004374266  0.40856209956109524  0.24441085383296013  1.0000
  H   H2        1.0  0.8166240183636546  0.5973305869847536  0.7996900826692581  1.0000
  H   H3        1.0  0.009907815605401993  0.22396070696413517  0.1315485192462802  1.0000
  H   H4        1.0  0.4617996122688055  0.1545910621061921  0.9821662629256025  1.0000
  H   H5        1.0  0.15367453079670668  0.29300219658762217  0.9090263526886702  1.0000
  H   H6        1.0  0.41946757212281227  0.4094767712522298  0.07602813094854355  1.0000
  H   H7        1.0  0.47419996932148933  0.9201679099351168  0.9432375840842724  1.0000
  H   H8        1.0  0.8634358309209347  0.9041045713238418  0.9987021652050316  1.0000
  H   H9        1.0  0.07242373051121831  0.47694449685513973  0.10424582194536924  1.0000
  H   H10       1.0  0.31826648861169815  0.7465760931372643  0.6772549040615559  1.0000
  C   C1        1.0  0.09754961542785168  0.9629059433937073  0.06035440671257675  1.0000
  C   C2        1.0  0.6139979601139203  0.12257633870467544  0.7214832464233041  1.0000
  O   O1        1.0  0.5220140051096678  0.6271768920123577  0.7818736620247364  1.0000
  O   O2        1.0  0.46697710920125246  0.16054875415284187  0.18158562324242666  1.0000
  O   O3        1.0  0.888379970449023  0.3161978466960136  0.18621049833018333  1.0000
  O   O4        1.0  0.6659506759606302  0.2205715305171907  0.4125266647897661  1.0000
  O   O5        1.0  0.8339755110209808  0.16509487514849752  0.5604347914922982  1.0000
  O   O6        1.0  0.6671645289752632  0.3816727842204273  0.5350779747532215  1.0000
  O   O7        1.0  0.4670529142022133  0.8736588903702796  0.5487816856475547  1.0000
  O   O8        1.0  0.1477132843574509  0.5713085832539946  0.7760243600059766  1.0000
  O   O9        1.0  0.14204943738877773  0.6406357397790998  0.061970273847691715  1.0000
  O   O10       1.0  0.2033472001494374  0.22803045134060085  0.4903838535537943  1.0000
  O   O11       1.0  0.2233875944511965  0.5109715803409927  0.73139421680753  1.0000
  O   O12       1.0  0.8906432279327419  0.4713315851986408  0.52874949388206  1.0000
  O   O13       1.0  0.15319137275218964  0.5531244906596839  0.07394456444308162  1.0000
  O   O14       1.0  0.13164035603404045  0.3563469611108303  0.05746780714252964  1.0000
data_image129
_chemical_formula_structural       Pr2P2H10C2O14
_chemical_formula_sum              "Pr2 P2 H10 C2 O14"
_cell_length_a       6.761788999999999
_cell_length_b       7.146483751908908
_cell_length_c       7.843598011864962
_cell_angle_alpha    110.54253585495134
_cell_angle_beta     95.79501476046597
_cell_angle_gamma    89.49575901902455

_space_group_name_H-M_alt    "P 1"
_space_group_IT_number       1

loop_
  _space_group_symop_operation_xyz
  'x, y, z'

loop_
  _atom_site_type_symbol
  _atom_site_label
  _atom_site_symmetry_multiplicity
  _atom_site_fract_x
  _atom_site_fract_y
  _atom_site_fract_z
  _atom_site_occupancy
  Pr  Pr1       1.0  0.0037877445574849844  0.7186565911397338  0.527382337488234  1.0000
  Pr  Pr2       1.0  0.3230358622968197  0.8001329638063908  0.38804448582232  1.0000
  P   P1        1.0  0.16884589195251465  0.10231717955321074  0.43259845674037933  1.0000
  P   P2        1.0  0.9665666371583939  0.5878921747207642  0.7367436308413744  1.0000
  H   H1        1.0  0.5911727398633957  0.513192935846746  0.17862150724977255  1.0000
  H   H2        1.0  0.31532219983637333  0.8899423386901617  0.5416198521852493  1.0000
  H   H3        1.0  0.2817271687090397  0.48604515474289656  0.4347458151169121  1.0000
  H   H4        1.0  0.25992918480187654  0.5257850103080273  0.2374951965175569  1.0000
  H   H5        1.0  0.36891446774825454  0.5307855184655637  0.49944900069385767  1.0000
  H   H6        1.0  0.08123898319900036  0.7101098143029958  0.19740798510611057  1.0000
  H   H7        1.0  0.06743545178323984  0.6509764734655619  0.7912094183266163  1.0000
  H   H8        1.0  0.8256325721740723  0.967626818921417  0.8655035118572414  1.0000
  H   H9        1.0  0.8805549023672938  0.6613000221550465  0.5993325179442763  1.0000
  H   H10       1.0  0.4430515877902508  0.2421860173344612  0.8842187896370888  1.0000
  C   C1        1.0  0.9413988161832094  0.5254337210208178  0.09517156006768346  1.0000
  C   C2        1.0  0.7019836776889861  0.5641394248232245  0.8435734142549336  1.0000
  O   O1        1.0  0.5937243266962469  0.05852592922747135  0.8277174346148968  1.0000
  O   O2        1.0  0.4076898004859686  0.8993583733972628  0.29813479891163297  1.0000
  O   O3        1.0  0.6477619480574504  0.681479830032913  0.5002888817107305  1.0000
  O   O4        1.0  0.9042391669936478  0.6623054160736501  0.27855894807726145  1.0000
  O   O5        1.0  0.12305465317331254  0.34721028635976836  0.5813462214428  1.0000
  O   O6        1.0  0.7388927425490692  0.17878298554569483  0.516937246924499  1.0000
  O   O7        1.0  0.9549150974489748  0.2725031557492912  0.39250690781045705  1.0000
  O   O8        1.0  0.7449920804356225  0.1534414382185787  0.5386802446155343  1.0000
  O   O9        1.0  0.6384220463223755  0.8085300244856626  0.16086463094688952  1.0000
  O   O10       1.0  0.022424695926019922  0.3287458495469764  0.1586076497915201  1.0000
  O   O11       1.0  0.5206124659162015  0.2354387569357641  0.22473657414116133  1.0000
  O   O12       1.0  0.8842040770687163  0.07722458755597472  0.9948391595389694  1.0000
  O   O13       1.0  0.48227471485733986  0.608164575882256  0.007634959649294615  1.0000
  O   O14       1.0  0.10560037847608328  0.4974119430407882  0.9075243490515277  1.0000
data_image130
_chemical_formula_structural       Pr2P2H10C2O14
_chemical_formula_sum              "Pr2 P2 H10 C2 O14"
_cell_length_a       6.761788999999999
_cell_length_b       7.146483751908908
_cell_length_c       7.843598011864962
_cell_angle_alpha    110.54253585495134
_cell_angle_beta     95.79501476046597
_cell_angle_gamma    89.49575901902455

_space_group_name_H-M_alt    "P 1"
_space_group_IT_number       1

loop_
  _space_group_symop_operation_xyz
  'x, y, z'

loop_
  _atom_site_type_symbol
  _atom_site_label
  _atom_site_symmetry_multiplicity
  _atom_site_fract_x
  _atom_site_fract_y
  _atom_site_fract_z
  _atom_site_occupancy
  Pr  Pr1       1.0  0.5005864845588803  0.109297308139503  0.9508273797109723  1.0000
  Pr  Pr2       1.0  0.14928817190229893  0.46017908304929733  0.11535664461553097  1.0000
  P   P1        1.0  0.9641119539737701  0.18077667942270637  0.20679818093776703  1.0000
  P   P2        1.0  0.6315126866102219  0.8651302456855774  0.43547001481056213  1.0000
  H   H1        1.0  0.17771934159100056  0.12899084948003292  0.885597063228488  1.0000
  H   H2        1.0  0.8203598242253065  0.594641450792551  0.47012437507510185  1.0000
  H   H3        1.0  0.41255995631217957  0.43964617047458887  0.2037693471647799  1.0000
  H   H4        1.0  0.32646261248737574  0.018085747957229614  0.33087924704886973  1.0000
  H   H5        1.0  0.3456350821070373  0.9353549149818718  0.19851742591708899  1.0000
  H   H6        1.0  0.164189076051116  0.6902374630444683  0.8857770375907421  1.0000
  H   H7        1.0  0.588504258543253  0.39305263571441174  0.9387758895754814  1.0000
  H   H8        1.0  0.08806044235825539  0.7762461812235415  0.31578049948439  1.0000
  H   H9        1.0  0.4208382312208414  0.3319890946149826  0.3149658339098096  1.0000
  H   H10       1.0  0.6486363597214222  0.8868888951838017  0.11478074640035629  1.0000
  C   C1        1.0  0.7105111065320671  0.18704726547002792  0.9963112180121243  1.0000
  C   C2        1.0  0.2939445208758116  0.547530924435705  0.11575372517108917  1.0000
  O   O1        1.0  0.49708625487983227  0.582622742280364  0.5346261560916901  1.0000
  O   O2        1.0  0.8123169490136206  0.8632023497775663  0.21938207338098437  1.0000
  O   O3        1.0  0.39219974901061505  0.35243792639812455  0.7269289217656478  1.0000
  O   O4        1.0  0.32762979017570615  0.5761874096933752  0.22225951217114925  1.0000
  O   O5        1.0  0.06377098057419062  0.8659058064222336  0.24618930750875734  1.0000
  O   O6        1.0  0.5612679108744487  0.3236826923675835  0.7756229204242118  1.0000
  O   O7        1.0  0.18545325426384807  0.1928274380043149  0.06213643925730139  1.0000
  O   O8        1.0  0.767532894940814  0.8579337694682181  0.6330265246506315  1.0000
  O   O9        1.0  0.6289174160920084  0.22205342771485448  0.706137872999534  1.0000
  O   O10       1.0  0.5323996780789457  0.7121171398903243  0.1284442093456164  1.0000
  O   O11       1.0  0.26952945278026164  0.10277043044334278  0.18857730718809762  1.0000
  O   O12       1.0  0.5178245465795044  0.3249276636634022  0.6747983873356134  1.0000
  O   O13       1.0  0.4704914065077901  0.8100302116945386  0.0050745317712426186  1.0000
  O   O14       1.0  0.27464139135554433  0.7116258239839226  0.5356276108068414  1.0000
data_image131
_chemical_formula_structural       Pr2P2H10C2O14
_chemical_formula_sum              "Pr2 P2 H10 C2 O14"
_cell_length_a       6.761788999999999
_cell_length_b       7.146483751908908
_cell_length_c       7.843598011864962
_cell_angle_alpha    110.54253585495134
_cell_angle_beta     95.79501476046597
_cell_angle_gamma    89.49575901902455

_space_group_name_H-M_alt    "P 1"
_space_group_IT_number       1

loop_
  _space_group_symop_operation_xyz
  'x, y, z'

loop_
  _atom_site_type_symbol
  _atom_site_label
  _atom_site_symmetry_multiplicity
  _atom_site_fract_x
  _atom_site_fract_y
  _atom_site_fract_z
  _atom_site_occupancy
  Pr  Pr1       1.0  0.11744090775027871  0.41323816031217575  0.531306984834373  1.0000
  Pr  Pr2       1.0  0.9325398895889521  0.02392636239528656  0.7854905314743519  1.0000
  P   P1        1.0  0.8249304890632629  0.4847674397751689  0.8227070569992065  1.0000
  P   P2        1.0  0.9568999409675598  0.9012732058763504  0.6184197459369898  1.0000
  H   H1        1.0  0.300162885338068  0.06680784467607737  0.03808671236038208  1.0000
  H   H2        1.0  0.9866607142612338  0.5934104491025209  0.19695886224508286  1.0000
  H   H3        1.0  0.3134535104036331  0.9222018141299486  0.6174432546831667  1.0000
  H   H4        1.0  0.2460576305165887  0.9974848935380578  0.017468200996518135  1.0000
  H   H5        1.0  0.18414388364180923  0.3416834552772343  0.2704622568562627  1.0000
  H   H6        1.0  0.11314323917031288  0.09589215973392129  0.9712497629225254  1.0000
  H   H7        1.0  0.5634628050029278  0.31150475330650806  0.3411085121333599  1.0000
  H   H8        1.0  0.04122231900691986  0.9028398178052157  0.31272947508841753  1.0000
  H   H9        1.0  0.12777883559465408  0.15093784406781197  0.8831328693777323  1.0000
  H   H10       1.0  0.7336711399257183  0.4532925747334957  0.3348578028380871  1.0000
  C   C1        1.0  0.350067890714854  0.3733122684061527  0.8564503885572776  1.0000
  C   C2        1.0  0.00042721221689134836  0.5749515304341912  0.18739603972062469  1.0000
  O   O1        1.0  0.4675585017539561  0.4631947875022888  0.058143600821495056  1.0000
  O   O2        1.0  0.9220897299237549  0.8255503575201146  0.4382814805721864  1.0000
  O   O3        1.0  0.6540781233925372  0.22934125644678716  0.6220217877998948  1.0000
  O   O4        1.0  0.43725333036854863  0.6630074675194919  0.22840357944369316  1.0000
  O   O5        1.0  0.1685219171922654  0.551649434491992  0.23569571814732626  1.0000
  O   O6        1.0  0.21231349150184542  0.9728140393272042  0.9989077713980805  1.0000
  O   O7        1.0  0.3899296522140503  0.7655328898690641  0.028406562749296427  1.0000
  O   O8        1.0  0.702992924809223  0.29518597573041916  0.5281555799301714  1.0000
  O   O9        1.0  0.1171178093063645  0.21438759681768715  0.7959984308108687  1.0000
  O   O10       1.0  0.9175783297978342  0.6356392987654544  0.6500641347956844  1.0000
  O   O11       1.0  0.9128484060056508  0.6835053851536941  0.9338940761226695  1.0000
  O   O12       1.0  0.3486699305358343  0.6004156013950706  0.6651324285194278  1.0000
  O   O13       1.0  0.7239044196903706  0.7882660683244467  0.3061530599370599  1.0000
  O   O14       1.0  0.8996385145001113  0.17458815476857126  0.18741982529172674  1.0000
data_image132
_chemical_formula_structural       Pr2P2H10C2O14
_chemical_formula_sum              "Pr2 P2 H10 C2 O14"
_cell_length_a       6.761788999999999
_cell_length_b       7.146483751908908
_cell_length_c       7.843598011864962
_cell_angle_alpha    110.54253585495134
_cell_angle_beta     95.79501476046597
_cell_angle_gamma    89.49575901902455

_space_group_name_H-M_alt    "P 1"
_space_group_IT_number       1

loop_
  _space_group_symop_operation_xyz
  'x, y, z'

loop_
  _atom_site_type_symbol
  _atom_site_label
  _atom_site_symmetry_multiplicity
  _atom_site_fract_x
  _atom_site_fract_y
  _atom_site_fract_z
  _atom_site_occupancy
  Pr  Pr1       1.0  0.9497661120258272  0.3541720509529114  0.6190891228616238  1.0000
  Pr  Pr2       1.0  0.08349502086639404  0.14655175805091858  0.6383566316217184  1.0000
  P   P1        1.0  0.6323056221008301  0.6774791367352009  0.6693821400403976  1.0000
  P   P2        1.0  0.5929466038942337  0.07034574449062347  0.2505405470728874  1.0000
  H   H1        1.0  0.24095110967755318  0.31937153823673725  0.07233210280537605  1.0000
  H   H2        1.0  0.5934620331972837  0.7853760160505772  0.3316293805837631  1.0000
  H   H3        1.0  0.8366244845092297  0.1717685190960765  0.20030287792906165  1.0000
  H   H4        1.0  0.9951849598437548  0.911456620786339  0.06543302675709128  1.0000
  H   H5        1.0  0.9429531903006136  0.600922649493441  0.7525946544483304  1.0000
  H   H6        1.0  0.3495591841638088  0.10577388014644384  0.9984277156181633  1.0000
  H   H7        1.0  0.16729262005537748  0.8258622642606497  0.7101319544017315  1.0000
  H   H8        1.0  0.9606851525604725  0.8440202086931095  0.5505637614987791  1.0000
  H   H9        1.0  0.9404863826930523  0.8491179831326008  0.4928604867309332  1.0000
  H   H10       1.0  0.5766978096216917  0.970299743115902  0.08605149388313293  1.0000
  C   C1        1.0  0.9599471711553633  0.8907786495983601  0.30510435451287776  1.0000
  C   C2        1.0  0.9716179954120889  0.07101181289181113  0.6275423560291529  1.0000
  O   O1        1.0  0.40567057114094496  0.5831354539841413  0.06272381916642189  1.0000
  O   O2        1.0  0.2729638651944697  0.8989004910108633  0.13592329737730324  1.0000
  O   O3        1.0  0.17434868798591197  0.06833613367052749  0.17369436286389828  1.0000
  O   O4        1.0  0.9243477722629905  0.2403703578747809  0.7123377788811922  1.0000
  O   O5        1.0  0.127879110397771  0.3342511444352567  0.5306725148111582  1.0000
  O   O6        1.0  0.12721389217767864  0.22264294978231192  0.13832707493565977  1.0000
  O   O7        1.0  0.5274976384826005  0.4324432914145291  0.9354337073746137  1.0000
  O   O8        1.0  0.3529592087434139  0.5059459562180564  0.611137822503224  1.0000
  O   O9        1.0  0.12645327276550233  0.9229557875078171  0.4786002589389682  1.0000
  O   O10       1.0  0.6317427703179419  0.8342925492906943  0.5421812427230179  1.0000
  O   O11       1.0  0.2973165810108185  0.7311499266070314  0.1771004436450312  1.0000
  O   O12       1.0  0.937164869334083  0.24547617742791772  0.5364313311874866  1.0000
  O   O13       1.0  0.719718812033534  0.30787987634539604  0.40237397653982043  1.0000
  O   O14       1.0  0.8168729972094297  0.1081175017170608  0.30892553087323904  1.0000
data_image133
_chemical_formula_structural       Pr2P2H10C2O14
_chemical_formula_sum              "Pr2 P2 H10 C2 O14"
_cell_length_a       6.761788999999999
_cell_length_b       7.146483751908908
_cell_length_c       7.843598011864962
_cell_angle_alpha    110.54253585495134
_cell_angle_beta     95.79501476046597
_cell_angle_gamma    89.49575901902455

_space_group_name_H-M_alt    "P 1"
_space_group_IT_number       1

loop_
  _space_group_symop_operation_xyz
  'x, y, z'

loop_
  _atom_site_type_symbol
  _atom_site_label
  _atom_site_symmetry_multiplicity
  _atom_site_fract_x
  _atom_site_fract_y
  _atom_site_fract_z
  _atom_site_occupancy
  Pr  Pr1       1.0  0.6698420229367912  0.9854294788092375  0.9993400909006596  1.0000
  Pr  Pr2       1.0  0.911760956980288  0.6921363435685635  0.13093431666493416  1.0000
  P   P1        1.0  0.9040893316268921  0.17748400755226612  0.6386629268527031  1.0000
  P   P2        1.0  0.6855091005563736  0.11539080739021301  0.4822266362607479  1.0000
  H   H1        1.0  0.907851554453373  0.18868166208267212  0.7594401082023978  1.0000
  H   H2        1.0  0.5212804991751909  0.4412170685827732  0.4229115769267082  1.0000
  H   H3        1.0  0.6700343750417233  0.3148731058463454  0.24758010462392122  1.0000
  H   H4        1.0  0.8203845918178558  0.7580039883032441  0.33442125003784895  1.0000
  H   H5        1.0  0.6743138716556132  0.39711161237210035  0.4184374613687396  1.0000
  H   H6        1.0  0.252816054970026  0.7748922761529684  0.0964643657207489  1.0000
  H   H7        1.0  0.944558646529913  0.4937482737004757  0.31429294496774673  1.0000
  H   H8        1.0  0.5421936735510826  0.401171977922786  0.3203412792645395  1.0000
  H   H9        1.0  0.03424803214147687  0.9353723116219044  0.677263424731791  1.0000
  H   H10       1.0  0.3606874719262123  0.15656515210866928  0.057191066443920135  1.0000
  C   C1        1.0  0.37979436526075006  0.7143070194870234  0.4632103266194463  1.0000
  C   C2        1.0  0.7669161553494632  0.4284542314708233  0.2332195685012266  1.0000
  O   O1        1.0  0.20207251468673348  0.5505361184477806  0.43636878207325935  1.0000
  O   O2        1.0  0.2663612477481365  0.5340647306293249  0.5211469481000677  1.0000
  O   O3        1.0  0.20573550462722778  0.9588758032186888  0.1555078011006117  1.0000
  O   O4        1.0  0.05638241395354271  0.07419474865309894  0.33046546136029065  1.0000
  O   O5        1.0  0.08135205099824816  0.6623280913627241  0.5956156697357073  1.0000
  O   O6        1.0  0.9930873707635328  0.020528347231447697  0.39658102160319686  1.0000
  O   O7        1.0  0.6650334722362459  0.3307595979422331  0.8872780486417469  1.0000
  O   O8        1.0  0.013357785064727068  0.877661086502485  0.08777385216671973  1.0000
  O   O9        1.0  0.40288340020924807  0.46965300547890365  0.007133406586945057  1.0000
  O   O10       1.0  0.30365778066334315  0.2720602875924669  0.425605715950951  1.0000
  O   O11       1.0  0.40364494267851114  0.8100629495165776  0.3119680487579899  1.0000
  O   O12       1.0  0.14151620352640748  0.7590329688973725  0.8723179728258401  1.0000
  O   O13       1.0  0.7892538346350193  0.8892670786008239  0.6457459456287324  1.0000
  O   O14       1.0  0.7023795549757779  0.5895345695316792  0.19378165405942127  1.0000
data_image134
_chemical_formula_structural       Pr2P2H10C2O14
_chemical_formula_sum              "Pr2 P2 H10 C2 O14"
_cell_length_a       6.761788999999999
_cell_length_b       7.146483751908908
_cell_length_c       7.843598011864962
_cell_angle_alpha    110.54253585495134
_cell_angle_beta     95.79501476046597
_cell_angle_gamma    89.49575901902455

_space_group_name_H-M_alt    "P 1"
_space_group_IT_number       1

loop_
  _space_group_symop_operation_xyz
  'x, y, z'

loop_
  _atom_site_type_symbol
  _atom_site_label
  _atom_site_symmetry_multiplicity
  _atom_site_fract_x
  _atom_site_fract_y
  _atom_site_fract_z
  _atom_site_occupancy
  Pr  Pr1       1.0  0.5743703618645668  0.33045046404004097  0.4366907440125942  1.0000
  Pr  Pr2       1.0  0.5677997209131718  0.30734391510486603  0.6530527491122484  1.0000
  P   P1        1.0  0.3381204605102539  0.5899934433400631  0.19228889793157578  1.0000
  P   P2        1.0  0.7384793311357498  0.3572288453578949  0.8760228827595711  1.0000
  H   H1        1.0  0.6347541240975261  0.04788721073418856  0.14927932154387236  1.0000
  H   H2        1.0  0.3344670496881008  0.5381521135568619  0.4278384745121002  1.0000
  H   H3        1.0  0.015568599104881287  0.02310186345130205  0.6716496179142268  1.0000
  H   H4        1.0  0.07557082641869783  0.7537408648058772  0.22614474035799503  1.0000
  H   H5        1.0  0.37570799654349685  0.12021184992045164  0.7708956208080053  1.0000
  H   H6        1.0  0.6422529220581055  0.7701384574174881  0.487332945689559  1.0000
  H   H7        1.0  0.15149343200027943  0.9002188574522734  0.3897450380027294  1.0000
  H   H8        1.0  0.9118529260158539  0.07464237732347101  0.8400208652019501  1.0000
  H   H9        1.0  0.025183058809489012  0.12942392379045486  0.3764758128672838  1.0000
  H   H10       1.0  0.656916506588459  0.7808275669813156  0.6655302755534649  1.0000
  C   C1        1.0  0.4285283382050693  0.16171973943710327  0.1942512672394514  1.0000
  C   C2        1.0  0.8309900681488216  0.717339931987226  0.9747301079332829  1.0000
  O   O1        1.0  0.4135797480121255  0.2727654054760933  0.17070874944329262  1.0000
  O   O2        1.0  0.8084952523931861  0.11264105420559645  0.5303316507488489  1.0000
  O   O3        1.0  0.3132201312109828  0.6799247500021011  0.20442429929971695  1.0000
  O   O4        1.0  0.9497899631969631  0.07066021062200889  0.7330107116140425  1.0000
  O   O5        1.0  0.0496593191055581  0.20965195234748535  0.27287296834401786  1.0000
  O   O6        1.0  0.842871846165508  0.3043404803611338  0.8080396778532304  1.0000
  O   O7        1.0  0.646246044896543  0.20952435676008463  0.45422717559267767  1.0000
  O   O8        1.0  0.1548513225861825  0.2756842407397926  0.7584832985885441  1.0000
  O   O9        1.0  0.02081122761592269  0.8534626676701009  0.9105759458616376  1.0000
  O   O10       1.0  0.45829385382239707  0.29913834255421534  0.6593336873920634  1.0000
  O   O11       1.0  0.8361422963207588  0.2587535052516614  0.7613020322314696  1.0000
  O   O12       1.0  0.6377084780833684  0.5519776176661253  0.2997860088944435  1.0000
  O   O13       1.0  0.4759138962253928  0.7446895847097039  0.8122670250013471  1.0000
  O   O14       1.0  0.2203964376822114  0.05735301203094423  0.9702190328971483  1.0000
data_image135
_chemical_formula_structural       Pr2P2H10C2O14
_chemical_formula_sum              "Pr2 P2 H10 C2 O14"
_cell_length_a       6.761788999999999
_cell_length_b       7.146483751908908
_cell_length_c       7.843598011864962
_cell_angle_alpha    110.54253585495134
_cell_angle_beta     95.79501476046597
_cell_angle_gamma    89.49575901902455

_space_group_name_H-M_alt    "P 1"
_space_group_IT_number       1

loop_
  _space_group_symop_operation_xyz
  'x, y, z'

loop_
  _atom_site_type_symbol
  _atom_site_label
  _atom_site_symmetry_multiplicity
  _atom_site_fract_x
  _atom_site_fract_y
  _atom_site_fract_z
  _atom_site_occupancy
  Pr  Pr1       1.0  0.5965493223629892  0.3965788260102272  0.9393959604203701  1.0000
  Pr  Pr2       1.0  0.8562533166259527  0.6544707715511322  0.20350836031138897  1.0000
  P   P1        1.0  0.40031495690345764  0.04634832590818405  0.934679426252842  1.0000
  P   P2        1.0  0.7552800327539444  0.2347901165485382  0.32801850140094757  1.0000
  H   H1        1.0  0.560424042865634  0.6530772047117352  0.48242675699293613  1.0000
  H   H2        1.0  0.5516276005655527  0.4713259804993868  0.003962889313697815  1.0000
  H   H3        1.0  0.4137619137763977  0.011030351743102074  0.28433273325208575  1.0000
  H   H4        1.0  0.4839385924860835  0.38028594851493835  0.4537437742110342  1.0000
  H   H5        1.0  0.22000733064487576  0.36849645525217056  0.15341642685234547  1.0000
  H   H6        1.0  0.9185791127383709  0.03069368749856949  0.2937917201779783  1.0000
  H   H7        1.0  0.5145127857103944  0.8230772949755192  0.0017315633594989777  1.0000
  H   H8        1.0  0.045032113790512085  0.005781683255918324  0.3746261147316545  1.0000
  H   H9        1.0  0.7594359423965216  0.029547475278377533  0.04343631584197283  1.0000
  H   H10       1.0  0.5296181235462427  0.06638826429843903  0.5737489126622677  1.0000
  C   C1        1.0  0.6794239515438676  0.8451482523232698  0.973157026572153  1.0000
  C   C2        1.0  0.4661246966570616  0.37275909446179867  0.23312230361625552  1.0000
  O   O1        1.0  0.4377086637541652  0.8465852923691273  0.697710569947958  1.0000
  O   O2        1.0  0.8861794006079435  0.847966023022309  0.06358275085221976  1.0000
  O   O3        1.0  0.026082752738147974  0.7038154411129653  0.8100778330117464  1.0000
  O   O4        1.0  0.7053904258646071  0.04828543929033913  0.18482962832786143  1.0000
  O   O5        1.0  0.3117662488948554  0.3517076113494113  0.7565479326294735  1.0000
  O   O6        1.0  0.7734939840156585  0.727341927587986  0.41119499725755304  1.0000
  O   O7        1.0  0.27933811815455556  0.5510642239823937  0.023805700708180666  1.0000
  O   O8        1.0  0.19945059501333162  0.28863907663617283  0.44844724668655545  1.0000
  O   O9        1.0  0.5066512185148895  0.7440708233043551  0.26941229961812496  1.0000
  O   O10       1.0  0.16715053614461794  0.8467546203173697  0.974740311212372  1.0000
  O   O11       1.0  0.8022583805723116  0.18681579983967822  0.7361839633813361  1.0000
  O   O12       1.0  0.27006393278134055  0.13212646334432065  0.819533048896119  1.0000
  O   O13       1.0  0.5156735293567181  0.5438193958252668  0.29500058526173234  1.0000
  O   O14       1.0  0.5937756602652371  0.5940973267424852  0.7154362027067691  1.0000
data_image136
_chemical_formula_structural       Pr2P2H10C2O14
_chemical_formula_sum              "Pr2 P2 H10 C2 O14"
_cell_length_a       6.761788999999999
_cell_length_b       7.146483751908908
_cell_length_c       7.843598011864962
_cell_angle_alpha    110.54253585495134
_cell_angle_beta     95.79501476046597
_cell_angle_gamma    89.49575901902455

_space_group_name_H-M_alt    "P 1"
_space_group_IT_number       1

loop_
  _space_group_symop_operation_xyz
  'x, y, z'

loop_
  _atom_site_type_symbol
  _atom_site_label
  _atom_site_symmetry_multiplicity
  _atom_site_fract_x
  _atom_site_fract_y
  _atom_site_fract_z
  _atom_site_occupancy
  Pr  Pr1       1.0  0.12256838427856565  0.49621790647506714  0.2732711751013994  1.0000
  Pr  Pr2       1.0  0.4962804540991783  0.6644452586770058  0.2898745872080326  1.0000
  P   P1        1.0  0.8915857374668121  0.6949548944830894  0.5869742631912231  1.0000
  P   P2        1.0  0.748551607131958  0.03205840289592743  0.9534399881958961  1.0000
  H   H1        1.0  0.17941564973443747  0.33029661513864994  0.6678755953907967  1.0000
  H   H2        1.0  0.9334861785173416  0.08318772539496422  0.21850723028182983  1.0000
  H   H3        1.0  0.1585252322256565  0.6505262944847345  0.8781157594639808  1.0000
  H   H4        1.0  0.5771998288109899  0.8169510615989566  0.7100902392994612  1.0000
  H   H5        1.0  0.860978851094842  0.8486350586172193  0.04186049476265907  1.0000
  H   H6        1.0  0.9702252224087715  0.8288066312670708  0.35944484965875745  1.0000
  H   H7        1.0  0.1842734300880693  0.019691236317157745  0.6460680849850178  1.0000
  H   H8        1.0  0.8813915364444256  0.5378781302133575  0.6663561374880373  1.0000
  H   H9        1.0  0.24472135631367564  0.3507263734936714  0.12949017342180014  1.0000
  H   H10       1.0  0.5591752752661705  0.40826841071248055  0.07641114294528961  1.0000
  C   C1        1.0  0.6217536265030503  0.7407109308987856  0.1718525590840727  1.0000
  C   C2        1.0  0.034896808210760355  0.19784037955105305  0.8690432358998805  1.0000
  O   O1        1.0  0.2566452110186219  0.5956152528524399  0.20135635882616043  1.0000
  O   O2        1.0  0.9624853972345591  0.5693465566728264  0.9744825991801918  1.0000
  O   O3        1.0  0.45126819610595703  0.5560116533306427  0.5909944772720337  1.0000
  O   O4        1.0  0.11039005871862173  0.8052471387200058  0.0570905648637563  1.0000
  O   O5        1.0  0.6973943677730858  0.34529086819384247  0.8810831971932203  1.0000
  O   O6        1.0  0.4231236935593188  0.04271564865484834  0.5480652804253623  1.0000
  O   O7        1.0  0.7719806954264641  0.752326394431293  0.23381649592192844  1.0000
  O   O8        1.0  0.4687636941089295  0.0818494763225317  0.8201504752505571  1.0000
  O   O9        1.0  0.18066023010760546  0.1474354660604149  0.7388869151473045  1.0000
  O   O10       1.0  0.1850568125373684  0.22507940279319882  0.4920355175854638  1.0000
  O   O11       1.0  0.7017295859986916  0.18820517728454433  0.20501395098108333  1.0000
  O   O12       1.0  0.819902287068544  0.16456126887351274  0.5743312984704971  1.0000
  O   O13       1.0  0.7521930113434792  0.19133055116981268  0.10588776879012585  1.0000
  O   O14       1.0  0.5775454165413976  0.16137715615332127  0.10981990670552477  1.0000
data_image137
_chemical_formula_structural       Pr2P2H10C2O14
_chemical_formula_sum              "Pr2 P2 H10 C2 O14"
_cell_length_a       6.761788999999999
_cell_length_b       7.146483751908908
_cell_length_c       7.843598011864962
_cell_angle_alpha    110.54253585495134
_cell_angle_beta     95.79501476046597
_cell_angle_gamma    89.49575901902455

_space_group_name_H-M_alt    "P 1"
_space_group_IT_number       1

loop_
  _space_group_symop_operation_xyz
  'x, y, z'

loop_
  _atom_site_type_symbol
  _atom_site_label
  _atom_site_symmetry_multiplicity
  _atom_site_fract_x
  _atom_site_fract_y
  _atom_site_fract_z
  _atom_site_occupancy
  Pr  Pr1       1.0  0.44210859946906567  0.07837378419935703  0.9305616486817598  1.0000
  Pr  Pr2       1.0  0.46529625076800585  0.8549520820379257  0.3414336647838354  1.0000
  P   P1        1.0  0.9457131922245026  0.7828484699130058  0.7675435245037079  1.0000
  P   P2        1.0  0.286146879196167  0.9118993431329727  0.9428254999220371  1.0000
  H   H1        1.0  0.807208058424294  0.3420033687725663  0.9149553328752518  1.0000
  H   H2        1.0  0.5268832296133041  0.8653826583176851  0.9898181855678558  1.0000
  H   H3        1.0  0.12041096016764641  0.9261510651558638  0.4618534694891423  1.0000
  H   H4        1.0  0.710065751336515  0.7404068112373352  0.5407213971484452  1.0000
  H   H5        1.0  0.22845516121014953  0.4606106267310679  0.7730935271829367  1.0000
  H   H6        1.0  0.1968655064702034  0.6155005181208253  0.2967021004296839  1.0000
  H   H7        1.0  0.7946754053700715  0.44347305968403816  0.08033279702067375  1.0000
  H   H8        1.0  0.22828956320881844  0.11285862477961928  0.42805682122707367  1.0000
  H   H9        1.0  0.6749662067741156  0.6813269276171923  0.7795144207775593  1.0000
  H   H10       1.0  0.3290679734200239  0.07627969235181808  0.5552210435271263  1.0000
  C   C1        1.0  0.9907561531290412  0.46480660513043404  0.43169754568953067  1.0000
  C   C2        1.0  0.28075432730838656  0.6899753343313932  0.26479832408949733  1.0000
  O   O1        1.0  0.9296338255517185  0.05463373102247715  0.1750176139175892  1.0000
  O   O2        1.0  0.579258939716965  0.5965545016806573  0.750711806351319  1.0000
  O   O3        1.0  0.7811109484173357  0.09562222508247942  0.9891629256308079  1.0000
  O   O4        1.0  0.30944603867828846  0.7600925347942393  0.35218339995481074  1.0000
  O   O5        1.0  0.812336255912669  0.2931871766340919  0.626164288725704  1.0000
  O   O6        1.0  0.07934151159133762  0.5295264106243849  0.67261030850932  1.0000
  O   O7        1.0  0.49438882106915116  0.43138912227004766  0.778524362394819  1.0000
  O   O8        1.0  0.7045449723373167  0.14664911106228828  0.19939105620142072  1.0000
  O   O9        1.0  0.4212738322094083  0.06504490226507187  0.8067143242806196  1.0000
  O   O10       1.0  0.8238104408083018  0.32954720716224983  0.6611191079136916  1.0000
  O   O11       1.0  0.6430713224690408  0.8375745992671  0.05823634369880892  1.0000
  O   O12       1.0  0.38252181047573686  0.09909217269159853  0.5416042797733098  1.0000
  O   O13       1.0  0.1760620530694723  0.2788094859570265  0.586959679145366  1.0000
  O   O14       1.0  0.03301016194745898  0.7184221923816949  0.9280771740013734  1.0000
data_image138
_chemical_formula_structural       Pr2P2H10C2O14
_chemical_formula_sum              "Pr2 P2 H10 C2 O14"
_cell_length_a       6.761788999999999
_cell_length_b       7.146483751908908
_cell_length_c       7.843598011864962
_cell_angle_alpha    110.54253585495134
_cell_angle_beta     95.79501476046597
_cell_angle_gamma    89.49575901902455

_space_group_name_H-M_alt    "P 1"
_space_group_IT_number       1

loop_
  _space_group_symop_operation_xyz
  'x, y, z'

loop_
  _atom_site_type_symbol
  _atom_site_label
  _atom_site_symmetry_multiplicity
  _atom_site_fract_x
  _atom_site_fract_y
  _atom_site_fract_z
  _atom_site_occupancy
  Pr  Pr1       1.0  0.1912722666747868  0.4194217585027218  0.3502259496599436  1.0000
  Pr  Pr2       1.0  0.7479653796181083  0.8351946659386158  0.8011258449405432  1.0000
  P   P1        1.0  0.3998550474643707  0.46564784832298756  0.06406363844871521  1.0000
  P   P2        1.0  0.6116736978292465  0.19959791004657745  0.045390594750642776  1.0000
  H   H1        1.0  0.4843926941975951  0.1858502272516489  0.7497102338820696  1.0000
  H   H2        1.0  0.3302339222282171  0.4143108893185854  0.12193574756383896  1.0000
  H   H3        1.0  0.2509927712380886  0.8607190381735563  0.4807375340606086  1.0000
  H   H4        1.0  0.5689579648897052  0.12063048919662833  0.7268295118119568  1.0000
  H   H5        1.0  0.27259983867406845  0.5093760888557881  0.054148814640939236  1.0000
  H   H6        1.0  0.7150997966527939  0.7974927835166454  0.5852112798020244  1.0000
  H   H7        1.0  0.849357180763036  0.38921203650534153  0.015836182981729507  1.0000
  H   H8        1.0  0.2756914980709553  0.547251102514565  0.4613897316157818  1.0000
  H   H9        1.0  0.12139894207939506  0.8276904132217169  0.7725252043455839  1.0000
  H   H10       1.0  0.47527348436415195  0.8715839087963104  0.31888557597994804  1.0000
  C   C1        1.0  0.5402266681194305  0.35498829558491707  0.9119292218238115  1.0000
  C   C2        1.0  0.07483437797054648  0.14443738013505936  0.8366607427597046  1.0000
  O   O1        1.0  0.288289500400424  0.5289179664105177  0.5581487379968166  1.0000
  O   O2        1.0  0.3105010208673775  0.8638968912418932  0.8749210267560557  1.0000
  O   O3        1.0  0.6049986337311566  0.751798867888283  0.7880501411855221  1.0000
  O   O4        1.0  0.38335159001871943  0.24345234250358772  0.313726939028129  1.0000
  O   O5        1.0  0.13417683355510235  0.6713194559561089  0.24773192312568426  1.0000
  O   O6        1.0  0.2877315819496289  0.3776375111192465  0.9202256691642106  1.0000
  O   O7        1.0  0.27042908128350973  0.6259754747152328  0.024418091779807582  1.0000
  O   O8        1.0  0.1549355894094333  0.7806143255438656  0.4412043974734843  1.0000
  O   O9        1.0  0.27098665246739984  0.8953609419986606  0.5131899053230882  1.0000
  O   O10       1.0  0.811844284995459  0.6398184755234979  0.6841767316800542  1.0000
  O   O11       1.0  0.2434760999167338  0.43831967780715786  0.9985473147098674  1.0000
  O   O12       1.0  0.7218086996726925  0.8276073150336742  0.7789373593404889  1.0000
  O   O13       1.0  0.789330773986876  0.6622629528865218  0.3790433667600155  1.0000
  O   O14       1.0  0.5847325609065592  0.25419491971842945  0.42175787553424016  1.0000
data_image139
_chemical_formula_structural       Pr2P2H10C2O14
_chemical_formula_sum              "Pr2 P2 H10 C2 O14"
_cell_length_a       6.761788999999999
_cell_length_b       7.146483751908908
_cell_length_c       7.843598011864962
_cell_angle_alpha    110.54253585495134
_cell_angle_beta     95.79501476046597
_cell_angle_gamma    89.49575901902455

_space_group_name_H-M_alt    "P 1"
_space_group_IT_number       1

loop_
  _space_group_symop_operation_xyz
  'x, y, z'

loop_
  _atom_site_type_symbol
  _atom_site_label
  _atom_site_symmetry_multiplicity
  _atom_site_fract_x
  _atom_site_fract_y
  _atom_site_fract_z
  _atom_site_occupancy
  Pr  Pr1       1.0  0.6631670724600554  0.10904228873550892  0.22088465839624405  1.0000
  Pr  Pr2       1.0  0.43546303268522024  0.41993924602866173  0.285345746204257  1.0000
  P   P1        1.0  0.03441682457923889  0.9383925478905439  0.1585066169500351  1.0000
  P   P2        1.0  0.3162620961666107  0.6820811480283737  0.11554097384214401  1.0000
  H   H1        1.0  0.4809600720182061  0.046501606702804565  0.7302941000089049  1.0000
  H   H2        1.0  0.4760814532637596  0.3980647101998329  0.2593524381518364  1.0000
  H   H3        1.0  0.9575626701116562  0.5394788887351751  0.9219047104706988  1.0000
  H   H4        1.0  0.9227505344897509  0.9609415326267481  0.30108799785375595  1.0000
  H   H5        1.0  0.0605928273871541  0.22795237507671118  0.1078321784734726  1.0000
  H   H6        1.0  0.7040562368929386  0.597135528922081  0.41805366054177284  1.0000
  H   H7        1.0  0.061749561689794064  0.7962482329457998  0.204832024872303  1.0000
  H   H8        1.0  0.9678155705332756  0.33638323011109605  0.3122784458100796  1.0000
  H   H9        1.0  0.8043354949913919  0.41516520641744137  0.8344553830102086  1.0000
  H   H10       1.0  0.9108087550848722  0.5050993673503399  0.8780277259647846  1.0000
  C   C1        1.0  0.22211367264389992  0.5192456170916557  0.9059098865836859  1.0000
  C   C2        1.0  0.13526384066790342  0.0527432132512331  0.4711277380120009  1.0000
  O   O1        1.0  0.09363642055541277  0.9403126072138548  0.6724850833415985  1.0000
  O   O2        1.0  0.4848856055177748  0.24831769126467407  0.002656692056916654  1.0000
  O   O3        1.0  0.907071671448648  0.5858241184032522  0.8987633530050516  1.0000
  O   O4        1.0  0.48274408653378487  0.5383096143777948  0.2540325038135052  1.0000
  O   O5        1.0  0.6617006171727553  0.06547047846834175  0.7383975011762232  1.0000
  O   O6        1.0  0.8743312301812693  0.8601147537119687  0.8038818956702016  1.0000
  O   O7        1.0  0.1547441016882658  0.39997788332402706  0.7068839671555907  1.0000
  O   O8        1.0  0.29696755367331207  0.7632157043553889  0.7162893367931247  1.0000
  O   O9        1.0  0.26522212475538254  0.03253343794494867  0.3850549813359976  1.0000
  O   O10       1.0  0.31735214666696265  0.5108877997263335  0.7705535574350506  1.0000
  O   O11       1.0  0.5560441078851  0.9916806645342149  0.6240037679090165  1.0000
  O   O12       1.0  0.6460828670824412  0.8171036331914365  0.26647714572027326  1.0000
  O   O13       1.0  0.9364781603217125  0.7543028537184  0.4357677404768765  1.0000
  O   O14       1.0  0.5884088138118386  0.8407857913989574  0.430220540787559  1.0000
data_image140
_chemical_formula_structural       Pr2P2H10C2O14
_chemical_formula_sum              "Pr2 P2 H10 C2 O14"
_cell_length_a       6.761788999999999
_cell_length_b       7.146483751908908
_cell_length_c       7.843598011864962
_cell_angle_alpha    110.54253585495134
_cell_angle_beta     95.79501476046597
_cell_angle_gamma    89.49575901902455

_space_group_name_H-M_alt    "P 1"
_space_group_IT_number       1

loop_
  _space_group_symop_operation_xyz
  'x, y, z'

loop_
  _atom_site_type_symbol
  _atom_site_label
  _atom_site_symmetry_multiplicity
  _atom_site_fract_x
  _atom_site_fract_y
  _atom_site_fract_z
  _atom_site_occupancy
  Pr  Pr1       1.0  0.21212141402065754  0.5558567456901073  0.9229814726859331  1.0000
  Pr  Pr2       1.0  0.01408897154033184  0.3762989975512028  0.4303363896906376  1.0000
  P   P1        1.0  0.06575512886047363  0.7215738464146852  0.7863132581114769  1.0000
  P   P2        1.0  0.5843694359064102  0.37320226430892944  0.8616585806012154  1.0000
  H   H1        1.0  0.43208777997642756  0.4850566368550062  0.34148995019495487  1.0000
  H   H2        1.0  0.0441883597522974  0.8337480779737234  0.02329838275909424  1.0000
  H   H3        1.0  0.18698866292834282  0.48002413660287857  0.63694692827994  1.0000
  H   H4        1.0  0.3014387534931302  0.7651572409085929  0.6645280797965825  1.0000
  H   H5        1.0  0.4833033427130431  0.21633339999243617  0.73982550855726  1.0000
  H   H6        1.0  0.894393801689148  0.8610227443277836  0.9135723714716733  1.0000
  H   H7        1.0  0.885914227925241  0.9731861259788275  0.3525666259229183  1.0000
  H   H8        1.0  0.3916066363453865  0.04665057745296508  0.24276989325881004  1.0000
  H   H9        1.0  0.748266133479774  0.7700966000556946  0.5303494073450565  1.0000
  H   H10       1.0  0.969337172806263  0.7035152800381184  0.7543755434453487  1.0000
  C   C1        1.0  0.616647869348526  0.7139989733695984  0.4888578252866864  1.0000
  C   C2        1.0  0.6654268582351506  0.6914252117276192  0.06870795553550124  1.0000
  O   O1        1.0  0.30877416860312223  0.16870719194412231  0.741230919957161  1.0000
  O   O2        1.0  0.16417779959738255  0.23876732122153044  0.02560292382258922  1.0000
  O   O3        1.0  0.8647384117357433  0.03648433001944795  0.9622006714344025  1.0000
  O   O4        1.0  0.2990420777350664  0.5701673855655827  0.5928595613222569  1.0000
  O   O5        1.0  0.4607779458165169  0.6755288207205012  0.15307525475509465  1.0000
  O   O6        1.0  0.11727464653085917  0.17035369062796235  0.7509887118940242  1.0000
  O   O7        1.0  0.049363844096660614  0.8755344012752175  0.42349774087779224  1.0000
  O   O8        1.0  0.7619980209274217  0.09466228471137583  0.7052722802618518  1.0000
  O   O9        1.0  0.41613605758175254  0.057562664616853  0.34898876305669546  1.0000
  O   O10       1.0  0.8509587746229954  0.39964229008182883  0.404078803374432  1.0000
  O   O11       1.0  0.052808802225627005  0.7682246479525929  0.2340880183983245  1.0000
  O   O12       1.0  0.30175449670059606  0.5075982802081853  0.6050770289730281  1.0000
  O   O13       1.0  0.1466337414458394  0.12669533863663673  0.6469382755458355  1.0000
  O   O14       1.0  0.47645580116659403  0.8686703380662948  0.6758402695995755  1.0000
data_image141
_chemical_formula_structural       Pr2P2H10C2O14
_chemical_formula_sum              "Pr2 P2 H10 C2 O14"
_cell_length_a       6.761788999999999
_cell_length_b       7.146483751908908
_cell_length_c       7.843598011864962
_cell_angle_alpha    110.54253585495134
_cell_angle_beta     95.79501476046597
_cell_angle_gamma    89.49575901902455

_space_group_name_H-M_alt    "P 1"
_space_group_IT_number       1

loop_
  _space_group_symop_operation_xyz
  'x, y, z'

loop_
  _atom_site_type_symbol
  _atom_site_label
  _atom_site_symmetry_multiplicity
  _atom_site_fract_x
  _atom_site_fract_y
  _atom_site_fract_z
  _atom_site_occupancy
  Pr  Pr1       1.0  0.18520835041999817  0.888453658670187  0.9440960995852947  1.0000
  Pr  Pr2       1.0  0.5783206075429916  0.16909745335578918  0.00484885647892952  1.0000
  P   P1        1.0  0.40084603428840637  0.7657021172344685  0.18026800453662872  1.0000
  P   P2        1.0  0.22265857458114624  0.5496377944946289  0.47108494862914085  1.0000
  H   H1        1.0  0.06261561065912247  0.3135256292298436  0.5363566325977445  1.0000
  H   H2        1.0  0.4764144401997328  0.6403251253068447  0.11386159434914589  1.0000
  H   H3        1.0  0.29087450727820396  0.6555802188813686  0.8446983929607086  1.0000
  H   H4        1.0  0.20230080373585224  0.9514305968768895  0.4396423753350973  1.0000
  H   H5        1.0  0.140446484554559  0.9023969473782927  0.6405601985752583  1.0000
  H   H6        1.0  0.8054541908204556  0.996577262878418  0.872995953541249  1.0000
  H   H7        1.0  0.30819245195016265  0.04900213610380888  0.5688830427825451  1.0000
  H   H8        1.0  0.941938441246748  0.7600519559928216  0.10633188206702471  1.0000
  H   H9        1.0  0.02842253679409623  0.13367224112153053  0.09578911401331425  1.0000
  H   H10       1.0  0.7159203961491585  0.7831266336143017  0.5583392530679703  1.0000
  C   C1        1.0  0.3014061879366636  0.9760566130280495  0.3176272436976433  1.0000
  C   C2        1.0  0.8983789514750242  0.1217646487057209  0.5115522048436105  1.0000
  O   O1        1.0  0.9401571084745228  0.9073065854609013  0.38360847160220146  1.0000
  O   O2        1.0  0.5921470657922328  0.058744793524965644  0.915917515871115  1.0000
  O   O3        1.0  0.0014770017005503178  0.016186635941267014  0.2750552073121071  1.0000
  O   O4        1.0  0.782450295984745  0.21422677809459856  0.10536862281151116  1.0000
  O   O5        1.0  0.06384181440807879  0.5903559082071297  0.2817737889708951  1.0000
  O   O6        1.0  0.5830899454886094  0.26584193389862776  0.08804225880885497  1.0000
  O   O7        1.0  0.007792056538164616  0.5652170237153769  0.048542566975811496  1.0000
  O   O8        1.0  0.9374281881027855  0.4221152886748314  0.7067943088477477  1.0000
  O   O9        1.0  0.8316257451660931  0.8333886216860265  0.5126878693699837  1.0000
  O   O10       1.0  0.4470388432528125  0.20048745558597147  0.6609060950577259  1.0000
  O   O11       1.0  0.39469965593889356  0.30138182378868805  0.30400308091338957  1.0000
  O   O12       1.0  0.18496405995392706  0.6596604001242667  0.7222472445573658  1.0000
  O   O13       1.0  0.6331802699714899  0.8472265489399433  0.6015470610000193  1.0000
  O   O14       1.0  0.4928217879496515  0.6823589140549302  0.7494593097362667  1.0000
data_image142
_chemical_formula_structural       Pr2P2H10C2O14
_chemical_formula_sum              "Pr2 P2 H10 C2 O14"
_cell_length_a       6.761788999999999
_cell_length_b       7.146483751908908
_cell_length_c       7.843598011864962
_cell_angle_alpha    110.54253585495134
_cell_angle_beta     95.79501476046597
_cell_angle_gamma    89.49575901902455

_space_group_name_H-M_alt    "P 1"
_space_group_IT_number       1

loop_
  _space_group_symop_operation_xyz
  'x, y, z'

loop_
  _atom_site_type_symbol
  _atom_site_label
  _atom_site_symmetry_multiplicity
  _atom_site_fract_x
  _atom_site_fract_y
  _atom_site_fract_z
  _atom_site_occupancy
  Pr  Pr1       1.0  0.49822505423799157  0.3676085025072098  0.7845963574945927  1.0000
  Pr  Pr2       1.0  0.9085888704285026  0.1695168986916542  0.5588140189647675  1.0000
  P   P1        1.0  0.7574535608291626  0.8703391961753368  0.09559361636638641  1.0000
  P   P2        1.0  0.9564750492572784  0.3183472156524658  0.17323275282979012  1.0000
  H   H1        1.0  0.9788087839260697  0.5408635335043073  0.1504621934145689  1.0000
  H   H2        1.0  0.4849774744361639  0.16230729036033154  0.990444615483284  1.0000
  H   H3        1.0  0.9521457366645336  0.09469610638916492  0.24081998050678521  1.0000
  H   H4        1.0  0.43560279812663794  0.4047603257931769  0.593646758235991  1.0000
  H   H5        1.0  0.14535528607666492  0.19108873698860407  0.5954760424792767  1.0000
  H   H6        1.0  0.4483289048075676  0.9438083190470934  0.5034080217592418  1.0000
  H   H7        1.0  0.9458597479388118  0.5313055235892534  0.9081494770944118  1.0000
  H   H8        1.0  0.04752489924430847  0.24320902588078752  0.10711960075423121  1.0000
  H   H9        1.0  0.6377542386762798  0.15988766960799694  0.058937069959938526  1.0000
  H   H10       1.0  0.10594287142157555  0.4822379909455776  0.2047545537352562  1.0000
  C   C1        1.0  0.8724043145775795  0.21885717287659645  0.5563917905092239  1.0000
  C   C2        1.0  0.5871119103394449  0.4736295621842146  0.17024621949531138  1.0000
  O   O1        1.0  0.24931688606739044  0.9358704928308725  0.9577728733420372  1.0000
  O   O2        1.0  0.31636917497962713  0.7961409883573651  0.4730067802593112  1.0000
  O   O3        1.0  0.37706100195646286  0.2762563826981932  0.4992546997964382  1.0000
  O   O4        1.0  0.3239590176381171  0.9336108017887454  0.7411802122369409  1.0000
  O   O5        1.0  0.3752402067184448  0.6895555630908348  0.49880470719654113  1.0000
  O   O6        1.0  0.9605273702181876  0.7730708923190832  0.9286169764236547  1.0000
  O   O7        1.0  0.19346876116469502  0.6440102458000183  0.10315477079711854  1.0000
  O   O8        1.0  0.8641049852012657  0.7796725601656362  0.46146582753863186  1.0000
  O   O9        1.0  0.8720327094197273  0.7503754878416657  0.4861669261008501  1.0000
  O   O10       1.0  0.9053451307117939  0.8925725913140923  0.33406802295939997  1.0000
  O   O11       1.0  0.06086638034321368  0.8608648764311511  0.40286223595467163  1.0000
  O   O12       1.0  0.2724008411896648  0.23445642762817442  0.2888885277789086  1.0000
  O   O13       1.0  0.06296875514090061  0.9594473112374544  0.5004239929839969  1.0000
  O   O14       1.0  0.8376169428229332  0.6143935788422823  0.20053334475960582  1.0000
data_image143
_chemical_formula_structural       Pr2P2H10C2O14
_chemical_formula_sum              "Pr2 P2 H10 C2 O14"
_cell_length_a       6.761788999999999
_cell_length_b       7.146483751908908
_cell_length_c       7.843598011864962
_cell_angle_alpha    110.54253585495134
_cell_angle_beta     95.79501476046597
_cell_angle_gamma    89.49575901902455

_space_group_name_H-M_alt    "P 1"
_space_group_IT_number       1

loop_
  _space_group_symop_operation_xyz
  'x, y, z'

loop_
  _atom_site_type_symbol
  _atom_site_label
  _atom_site_symmetry_multiplicity
  _atom_site_fract_x
  _atom_site_fract_y
  _atom_site_fract_z
  _atom_site_occupancy
  Pr  Pr1       1.0  0.976610769983381  0.26665116660296917  0.658630333840847  1.0000
  Pr  Pr2       1.0  0.6542371725663543  0.21356821432709694  0.4613363817334175  1.0000
  P   P1        1.0  0.008807480335235596  0.7344934158027172  0.8564185202121735  1.0000
  P   P2        1.0  0.039678871631622314  0.4265980124473572  0.6059873886406422  1.0000
  H   H1        1.0  0.6035304665565491  0.438359965570271  0.26607755199074745  1.0000
  H   H2        1.0  0.9080067574977875  0.8449744358658791  0.8199799731373787  1.0000
  H   H3        1.0  0.8002402260899544  0.38265922013670206  0.7949920769315213  1.0000
  H   H4        1.0  0.13908334728330374  0.997082537971437  0.07932581007480621  1.0000
  H   H5        1.0  0.6188410148024559  0.030661654192954302  0.3702443540096283  1.0000
  H   H6        1.0  0.6221242602914572  0.07814369164407253  0.4854406053200364  1.0000
  H   H7        1.0  0.0037612412124872208  0.7392395650967956  0.6133591346442699  1.0000
  H   H8        1.0  0.7742570638656616  0.3912010140484199  0.09332492761313915  1.0000
  H   H9        1.0  0.4314094418659806  0.9164819996803999  0.12234463728964329  1.0000
  H   H10       1.0  0.9154165610671043  0.4486625902354717  0.36823535338044167  1.0000
  C   C1        1.0  0.5143594536930323  0.392934937030077  0.3718187194317579  1.0000
  C   C2        1.0  0.6930077304132283  0.6459497883915901  0.981227083131671  1.0000
  O   O1        1.0  0.23924736445769668  0.45934298634529114  0.7814892753958702  1.0000
  O   O2        1.0  0.084938392508775  0.3757693690713495  0.20175813336391002  1.0000
  O   O3        1.0  0.1772064222022891  0.20521175384055823  0.23575760051608086  1.0000
  O   O4        1.0  0.329106526914984  0.3952708298311336  0.6266734444070607  1.0000
  O   O5        1.0  0.3732419185107574  0.8664239572826773  0.9017253305064514  1.0000
  O   O6        1.0  0.497937896871008  0.015582189429551363  0.7213891138671897  1.0000
  O   O7        1.0  0.22839634958654642  0.46782553009688854  0.33811929065268487  1.0000
  O   O8        1.0  0.6326310093281791  0.17427619616501033  0.7809949982911348  1.0000
  O   O9        1.0  0.8308533262461424  0.3390272578690201  0.08657924830913544  1.0000
  O   O10       1.0  0.2804538935306482  0.9659610922681168  0.5133636879036203  1.0000
  O   O11       1.0  0.3291621987009421  0.9831108753605804  0.1443806557217613  1.0000
  O   O12       1.0  0.7856483829236822  0.030891240807250142  0.9358744286000729  1.0000
  O   O13       1.0  0.6860997267067432  0.9993961434811354  0.6592762158252299  1.0000
  O   O14       1.0  0.7933021942153573  0.9717078441753983  0.7831134292646311  1.0000
data_image144
_chemical_formula_structural       Pr2P2H10C2O14
_chemical_formula_sum              "Pr2 P2 H10 C2 O14"
_cell_length_a       6.761788999999999
_cell_length_b       7.146483751908908
_cell_length_c       7.843598011864962
_cell_angle_alpha    110.54253585495134
_cell_angle_beta     95.79501476046597
_cell_angle_gamma    89.49575901902455

_space_group_name_H-M_alt    "P 1"
_space_group_IT_number       1

loop_
  _space_group_symop_operation_xyz
  'x, y, z'

loop_
  _atom_site_type_symbol
  _atom_site_label
  _atom_site_symmetry_multiplicity
  _atom_site_fract_x
  _atom_site_fract_y
  _atom_site_fract_z
  _atom_site_occupancy
  Pr  Pr1       1.0  0.7378223766572773  0.6943704262375832  0.4377655144780874  1.0000
  Pr  Pr2       1.0  0.1154717244207859  0.7120781056582928  0.24501036293804646  1.0000
  P   P1        1.0  0.2849218249320984  0.49204544350504875  0.37488120049238205  1.0000
  P   P2        1.0  0.47287242114543915  0.04568187892436981  0.3048403635621071  1.0000
  H   H1        1.0  0.2525893487036228  0.7419122364372015  0.3289876049384475  1.0000
  H   H2        1.0  0.08586413599550724  0.4936961140483618  0.7213921844959259  1.0000
  H   H3        1.0  0.4998709596693516  0.645341687835753  0.9094034316949546  1.0000
  H   H4        1.0  0.07257795426994562  0.8897949191741645  0.7887758617289364  1.0000
  H   H5        1.0  0.1367999471258372  0.5140010532923043  0.7959293620660901  1.0000
  H   H6        1.0  0.31449123099446297  0.09559561125934124  0.12486940622329712  1.0000
  H   H7        1.0  0.9323965664952993  0.005495958961546421  0.26762063801288605  1.0000
  H   H8        1.0  0.5016826093196869  0.5665399905410595  0.4522603852674365  1.0000
  H   H9        1.0  0.4527665451169014  0.08518528379499912  0.46611629985272884  1.0000
  H   H10       1.0  0.630503948777914  0.7490668036043644  0.27315985783934593  1.0000
  C   C1        1.0  0.15820134803652763  0.3033633716404438  0.21127666719257832  1.0000
  C   C2        1.0  0.04631943069398403  0.35016727820038795  0.8465694021433592  1.0000
  O   O1        1.0  0.7117186621762812  0.6144692562520504  0.6173157878220081  1.0000
  O   O2        1.0  0.6951660076156259  0.6677161769475788  0.12490488437470049  1.0000
  O   O3        1.0  0.05317995743826032  0.8112410120666027  0.7808258589357138  1.0000
  O   O4        1.0  0.6996706337668002  0.7194328319747001  0.4595104882027954  1.0000
  O   O5        1.0  0.2083914647810161  0.6234510499052703  0.24545208655763417  1.0000
  O   O6        1.0  0.9448060762370005  0.6535615085158497  0.792610687261913  1.0000
  O   O7        1.0  0.9884047931991518  0.1303126560524106  0.8505018049618229  1.0000
  O   O8        1.0  0.23949124733917415  0.6521385860396549  0.18368345825001597  1.0000
  O   O9        1.0  0.6082892827689648  0.2115018859039992  0.1842201454564929  1.0000
  O   O10       1.0  0.9170057994197123  0.7021254654973745  0.17647942184703425  1.0000
  O   O11       1.0  0.02736399380955845  0.9021939453086816  0.9329596576280892  1.0000
  O   O12       1.0  0.32091728610976133  0.7110485336743295  0.5736831941176206  1.0000
  O   O13       1.0  0.38421848602592945  0.05936232674866915  0.3253902760334313  1.0000
  O   O14       1.0  0.7078485479578376  0.5915308864787221  0.33792202308541164  1.0000
data_image145
_chemical_formula_structural       Pr2P2H10C2O14
_chemical_formula_sum              "Pr2 P2 H10 C2 O14"
_cell_length_a       6.761788999999999
_cell_length_b       7.146483751908908
_cell_length_c       7.843598011864962
_cell_angle_alpha    110.54253585495134
_cell_angle_beta     95.79501476046597
_cell_angle_gamma    89.49575901902455

_space_group_name_H-M_alt    "P 1"
_space_group_IT_number       1

loop_
  _space_group_symop_operation_xyz
  'x, y, z'

loop_
  _atom_site_type_symbol
  _atom_site_label
  _atom_site_symmetry_multiplicity
  _atom_site_fract_x
  _atom_site_fract_y
  _atom_site_fract_z
  _atom_site_occupancy
  Pr  Pr1       1.0  0.6215319079346955  0.22247078828513622  0.045488081872463226  1.0000
  Pr  Pr2       1.0  0.05891204625368118  0.7211472690105438  0.16496006026864052  1.0000
  P   P1        1.0  0.6778662204742432  0.6864193081855774  0.47411588579416275  1.0000
  P   P2        1.0  0.4137500524520874  0.693453386425972  0.45050765201449394  1.0000
  H   H1        1.0  0.483840674161911  0.9921951806172729  0.7925085565075278  1.0000
  H   H2        1.0  0.03406714089214802  0.39894602447748184  0.9657023847103119  1.0000
  H   H3        1.0  0.49217546358704567  0.9926041699945927  0.18266939371824265  1.0000
  H   H4        1.0  0.3246807726100087  0.43486665515229106  0.7611017217859626  1.0000
  H   H5        1.0  0.8179679431486875  0.3977118213661015  0.6568981176242232  1.0000
  H   H6        1.0  0.7885354552417994  0.6900719460099936  0.6364987213164568  1.0000
  H   H7        1.0  0.5276395808905363  0.48218383081257343  0.8182856999337673  1.0000
  H   H8        1.0  0.45502476394176483  0.7770705839502625  0.07931210426613688  1.0000
  H   H9        1.0  0.5826298012398183  0.5364494267851114  0.7418861044570804  1.0000
  H   H10       1.0  0.6281913667917252  0.7010257616639137  0.21688499674201012  1.0000
  C   C1        1.0  0.00855891965329647  0.4106343034654856  0.2822508392855525  1.0000
  C   C2        1.0  0.8286051210016012  0.38637951388955116  0.5346911770757288  1.0000
  O   O1        1.0  0.08714360417798162  0.04291030205786228  0.6090882755815983  1.0000
  O   O2        1.0  0.9805495040491223  0.47761417739093304  0.14536225516349077  1.0000
  O   O3        1.0  0.9750555497594178  0.022171706368681043  0.2636043895035982  1.0000
  O   O4        1.0  0.3666443442925811  0.64681312898756  0.02180204796604812  1.0000
  O   O5        1.0  0.4363203993998468  0.928262161265593  0.14757555082906038  1.0000
  O   O6        1.0  0.43903793569188565  0.5003731166943908  0.15491564950207248  1.0000
  O   O7        1.0  0.7996558439917862  0.7282979069277644  0.4122885330871213  1.0000
  O   O8        1.0  0.7728457513730973  0.3195900967111811  0.7084998684003949  1.0000
  O   O9        1.0  0.1318574845790863  0.13407228561118245  0.6433060886338353  1.0000
  O   O10       1.0  0.6926888544112444  0.1243076624814421  0.0960149645106867  1.0000
  O   O11       1.0  0.04573025170248002  0.022556816278665792  0.38969942101539345  1.0000
  O   O12       1.0  0.34759253839729354  0.6869265241548419  0.5940540644805878  1.0000
  O   O13       1.0  0.7231380986049771  0.028184527531266212  0.21226502861827612  1.0000
  O   O14       1.0  0.4055864280089736  0.11251612333580852  0.09152448904933408  1.0000
data_image146
_chemical_formula_structural       Pr2P2H10C2O14
_chemical_formula_sum              "Pr2 P2 H10 C2 O14"
_cell_length_a       6.761788999999999
_cell_length_b       7.146483751908908
_cell_length_c       7.843598011864962
_cell_angle_alpha    110.54253585495134
_cell_angle_beta     95.79501476046597
_cell_angle_gamma    89.49575901902455

_space_group_name_H-M_alt    "P 1"
_space_group_IT_number       1

loop_
  _space_group_symop_operation_xyz
  'x, y, z'

loop_
  _atom_site_type_symbol
  _atom_site_label
  _atom_site_symmetry_multiplicity
  _atom_site_fract_x
  _atom_site_fract_y
  _atom_site_fract_z
  _atom_site_occupancy
  Pr  Pr1       1.0  0.04168938985094428  0.29879139363765717  0.14445212483406067  1.0000
  Pr  Pr2       1.0  0.46551411133259535  0.7107448019087315  0.34714872762560844  1.0000
  P   P1        1.0  0.30273622274398804  0.1109999492764473  0.5667379125952721  1.0000
  P   P2        1.0  0.22452948987483978  0.06491681933403015  0.3233080506324768  1.0000
  H   H1        1.0  0.042703513987362385  0.5116905216127634  0.574071291834116  1.0000
  H   H2        1.0  0.009774068370461464  0.2582588382065296  0.6349729634821415  1.0000
  H   H3        1.0  0.868395809084177  0.15171017358079553  0.5557158114388585  1.0000
  H   H4        1.0  0.43207570910453796  0.49788606772199273  0.1295876984950155  1.0000
  H   H5        1.0  0.15885531366802752  0.6872894316911697  0.014560624025762081  1.0000
  H   H6        1.0  0.2527511175721884  0.20966516993939877  0.0526428297162056  1.0000
  H   H7        1.0  0.7293948829174042  0.29518633242696524  0.6781610324978828  1.0000
  H   H8        1.0  0.22449077293276787  0.9528675690235104  0.21177209774032235  1.0000
  H   H9        1.0  0.4210004163905978  0.4855448231101036  0.47365764155983925  1.0000
  H   H10       1.0  0.531102342531085  0.9612178131937981  0.18359656259417534  1.0000
  C   C1        1.0  0.051520234905183315  0.001073857769370079  0.41829838044941425  1.0000
  C   C2        1.0  0.6968986175488681  0.8829141277819872  0.71269302489236  1.0000
  O   O1        1.0  0.37180850841104984  0.10586225055158138  0.935826126486063  1.0000
  O   O2        1.0  0.8193869004026055  0.9858428332954645  0.12993775180075318  1.0000
  O   O3        1.0  0.8311851411126554  0.5360884611145593  0.5306255593895912  1.0000
  O   O4        1.0  0.6621816898696125  0.9557007843395695  0.43929871497675776  1.0000
  O   O5        1.0  0.8106549722142518  0.7351234954549  0.9988020694581792  1.0000
  O   O6        1.0  0.34383094718214124  0.25962046533823013  0.8759791529155336  1.0000
  O   O7        1.0  0.8368009510450065  0.4921811744570732  0.546743099403102  1.0000
  O   O8        1.0  0.12216890446143225  0.9393625345546752  0.8578779406379908  1.0000
  O   O9        1.0  0.43646280840039253  0.9974688747897744  0.9024058049544692  1.0000
  O   O10       1.0  0.2268611337058246  0.8746565870242193  0.6205647416063584  1.0000
  O   O11       1.0  0.37075799668673426  0.9609410209959606  0.5325268939304806  1.0000
  O   O12       1.0  0.11993291522958316  0.9286586337257177  0.24514825665391982  1.0000
  O   O13       1.0  0.9790983069688082  0.7547638528048992  0.6520503219217062  1.0000
  O   O14       1.0  0.6248112693428993  0.11395394359715283  0.9778870986774564  1.0000
data_image147
_chemical_formula_structural       Pr2P2H10C2O14
_chemical_formula_sum              "Pr2 P2 H10 C2 O14"
_cell_length_a       6.761788999999999
_cell_length_b       7.146483751908908
_cell_length_c       7.843598011864962
_cell_angle_alpha    110.54253585495134
_cell_angle_beta     95.79501476046597
_cell_angle_gamma    89.49575901902455

_space_group_name_H-M_alt    "P 1"
_space_group_IT_number       1

loop_
  _space_group_symop_operation_xyz
  'x, y, z'

loop_
  _atom_site_type_symbol
  _atom_site_label
  _atom_site_symmetry_multiplicity
  _atom_site_fract_x
  _atom_site_fract_y
  _atom_site_fract_z
  _atom_site_occupancy
  Pr  Pr1       1.0  0.38913000002503395  0.32471031695604324  0.6766303200274706  1.0000
  Pr  Pr2       1.0  0.7615296160802245  0.6848984099924564  0.6256521828472614  1.0000
  P   P1        1.0  0.8511627614498138  0.5864590257406235  0.7114926874637604  1.0000
  P   P2        1.0  0.966281920671463  0.5402766764163971  0.3854662887752056  1.0000
  H   H1        1.0  0.5062487935647368  0.6519533535465598  0.5431323740631342  1.0000
  H   H2        1.0  0.2567942999303341  0.210673239082098  0.8936800360679626  1.0000
  H   H3        1.0  0.30479832366108894  0.9884847819339484  0.01967344619333744  1.0000
  H   H4        1.0  0.4540867302566767  0.7145960377529263  0.6568016798701137  1.0000
  H   H5        1.0  0.10690193669870496  0.2782802351284772  0.7731698155403137  1.0000
  H   H6        1.0  0.5196883697062731  0.274920167401433  0.26859792321920395  1.0000
  H   H7        1.0  0.60294518340379  0.3851727256551385  0.3852439559996128  1.0000
  H   H8        1.0  0.8858576752245426  0.6294332378020044  0.7858763444237411  1.0000
  H   H9        1.0  0.25732221314683557  0.9919201973825693  0.39316059090197086  1.0000
  H   H10       1.0  0.6147177200764418  0.13428466394543648  0.40307653322815895  1.0000
  C   C1        1.0  0.9875617045909166  0.1354003194719553  0.44034958630800247  1.0000
  C   C2        1.0  0.9722403613850474  0.8405392840504646  0.5768681669142097  1.0000
  O   O1        1.0  0.07546848896890879  0.7688837125897408  0.2165633924305439  1.0000
  O   O2        1.0  0.1735057826153934  0.8488077600486577  0.4219336659880355  1.0000
  O   O3        1.0  0.988110903184861  0.17983579891733825  0.07985270582139492  1.0000
  O   O4        1.0  0.9493421679362655  0.030142102332320064  0.5030961949378252  1.0000
  O   O5        1.0  0.2608530347933993  0.35023555695079267  0.9735480432864279  1.0000
  O   O6        1.0  0.811431159847416  0.8307748469524086  0.5537275107926689  1.0000
  O   O7        1.0  0.0051953052170574665  0.303340969607234  0.8179603622265859  1.0000
  O   O8        1.0  0.3968449888052419  0.7745176653843373  0.014270567102357745  1.0000
  O   O9        1.0  0.13787317415699363  0.9666988682001829  0.9727612966671586  1.0000
  O   O10       1.0  0.30099118285579607  0.42109443701338023  0.46577057999093086  1.0000
  O   O11       1.0  0.02624265500344336  0.9086959009655402  0.9180975115123147  1.0000
  O   O12       1.0  0.19447581272106618  0.7000461288262159  0.526342736557126  1.0000
  O   O13       1.0  0.9603365147486329  0.2999443840235472  0.30413359869271517  1.0000
  O   O14       1.0  0.48013532161712646  0.8075908874161541  0.7133308296324685  1.0000
data_image148
_chemical_formula_structural       Pr2P2H10C2O14
_chemical_formula_sum              "Pr2 P2 H10 C2 O14"
_cell_length_a       6.761788999999999
_cell_length_b       7.146483751908908
_cell_length_c       7.843598011864962
_cell_angle_alpha    110.54253585495134
_cell_angle_beta     95.79501476046597
_cell_angle_gamma    89.49575901902455

_space_group_name_H-M_alt    "P 1"
_space_group_IT_number       1

loop_
  _space_group_symop_operation_xyz
  'x, y, z'

loop_
  _atom_site_type_symbol
  _atom_site_label
  _atom_site_symmetry_multiplicity
  _atom_site_fract_x
  _atom_site_fract_y
  _atom_site_fract_z
  _atom_site_occupancy
  Pr  Pr1       1.0  0.6502851662226021  0.13028676062822342  0.5709595791995525  1.0000
  Pr  Pr2       1.0  0.21462068986147642  0.08066166192293167  0.5833568796515465  1.0000
  P   P1        1.0  0.3503575026988983  0.9418008625507355  0.19484254717826843  1.0000
  P   P2        1.0  0.8305540680885315  0.9191594123840332  0.279743205755949  1.0000
  H   H1        1.0  0.863833668641746  0.013127190992236137  0.3161393254995346  1.0000
  H   H2        1.0  0.839465506374836  0.4754433948546648  0.8702906109392643  1.0000
  H   H3        1.0  0.2768373675644398  0.293093120213598  0.508937967941165  1.0000
  H   H4        1.0  0.903135915286839  0.6683234353549778  0.2435340661322698  1.0000
  H   H5        1.0  0.16473995498381555  0.3595443181693554  0.8639825573191047  1.0000
  H   H6        1.0  0.4560673162341118  0.21746706403791904  0.9231609096750617  1.0000
  H   H7        1.0  0.42046554666012526  0.14828264340758324  0.8435250408947468  1.0000
  H   H8        1.0  0.17919093370437622  0.9065743802930228  0.4077740521170199  1.0000
  H   H9        1.0  0.6246025222353637  0.4099350646138191  0.43537073116749525  1.0000
  H   H10       1.0  0.6868581864982843  0.4753826893866062  0.2804263047873974  1.0000
  C   C1        1.0  0.4630039529874921  0.4218976479023695  0.8861077819019556  1.0000
  C   C2        1.0  0.6689676474197768  0.15345744229853153  0.2726007094606757  1.0000
  O   O1        1.0  0.8611016678623855  0.8522779978811741  0.06479202583432198  1.0000
  O   O2        1.0  0.4458275781944394  0.9978124389890581  0.37001179123762995  1.0000
  O   O3        1.0  0.35137135488912463  0.6392035275348462  0.13145243935287  1.0000
  O   O4        1.0  0.8746729609556496  0.866946695256047  0.19989623920992017  1.0000
  O   O5        1.0  0.581780236796476  0.2656395966769196  0.5084819584153593  1.0000
  O   O6        1.0  0.923797931172885  0.09920425526797771  0.22067755222087726  1.0000
  O   O7        1.0  0.8004164826124907  0.9287558635696769  0.6500062403792981  1.0000
  O   O8        1.0  0.22971158719155937  0.4513041989412159  0.22143047279678285  1.0000
  O   O9        1.0  0.07256698282435536  0.9795689850579947  0.3578493678942323  1.0000
  O   O10       1.0  0.7251208812231198  0.6798536038259044  0.4790760829928331  1.0000
  O   O11       1.0  0.5109395262552425  0.748893981854053  0.5497421012696577  1.0000
  O   O12       1.0  0.5434179815347306  0.5548575490247458  0.9028815850615501  1.0000
  O   O13       1.0  0.2298754882067442  0.3183028493076563  0.5764953605830669  1.0000
  O   O14       1.0  0.041429005563259125  0.9693293895106763  0.37508774059824646  1.0000
data_image149
_chemical_formula_structural       Pr2P2H10C2O14
_chemical_formula_sum              "Pr2 P2 H10 C2 O14"
_cell_length_a       6.761788999999999
_cell_length_b       7.146483751908908
_cell_length_c       7.843598011864962
_cell_angle_alpha    110.54253585495134
_cell_angle_beta     95.79501476046597
_cell_angle_gamma    89.49575901902455

_space_group_name_H-M_alt    "P 1"
_space_group_IT_number       1

loop_
  _space_group_symop_operation_xyz
  'x, y, z'

loop_
  _atom_site_type_symbol
  _atom_site_label
  _atom_site_symmetry_multiplicity
  _atom_site_fract_x
  _atom_site_fract_y
  _atom_site_fract_z
  _atom_site_occupancy
  Pr  Pr1       1.0  0.29956220323219895  0.6865464691072702  0.6636329907923937  1.0000
  Pr  Pr2       1.0  0.26059333607554436  0.2697174958884716  0.7012201100587845  1.0000
  P   P1        1.0  0.23489910364151  0.8337709978222847  0.5072403699159622  1.0000
  P   P2        1.0  0.756441742181778  0.9852985441684723  0.42534661293029785  1.0000
  H   H1        1.0  0.013159895315766335  0.5661554830148816  0.905498530715704  1.0000
  H   H2        1.0  0.01924821548163891  0.10762148164212704  0.2639198750257492  1.0000
  H   H3        1.0  0.9907200373709202  0.15322042722254992  0.03630480170249939  1.0000
  H   H4        1.0  0.030975024215877056  0.6713072014972568  0.2912309348466806  1.0000
  H   H5        1.0  0.19974943716078997  0.1297553558833897  0.9840186536312103  1.0000
  H   H6        1.0  0.06270526349544525  0.7061768807470798  0.8853141926229  1.0000
  H   H7        1.0  0.5235313298180699  0.3949409844353795  0.9419449605047703  1.0000
  H   H8        1.0  0.998311311006546  0.7115930409636348  0.7422365196980536  1.0000
  H   H9        1.0  0.6537486994639039  0.8677864409983158  0.8145000832155347  1.0000
  H   H10       1.0  0.8835196103900671  0.7629502266645432  0.7156908698379993  1.0000
  C   C1        1.0  0.963075328618288  0.7435089852660894  0.00454292818903923  1.0000
  C   C2        1.0  0.237582496352843  0.6193183958530426  0.2886603227816522  1.0000
  O   O1        1.0  0.6844047824852169  0.036030301824212074  0.7630034126341343  1.0000
  O   O2        1.0  0.4498935709707439  0.3330924981273711  0.3397781391395256  1.0000
  O   O3        1.0  0.7183802975341678  0.6523509070975706  0.3145843893289566  1.0000
  O   O4        1.0  0.4397521889768541  0.8638411030406132  0.23062975937500596  1.0000
  O   O5        1.0  0.18069334223400801  0.21645282075041905  0.9619294890435413  1.0000
  O   O6        1.0  0.23091858008410782  0.5374057651497424  0.6339827048650477  1.0000
  O   O7        1.0  0.7641571322456002  0.9201524592936039  0.7178116234572371  1.0000
  O   O8        1.0  0.6471218424849212  0.20989198330789804  0.6787084833486006  1.0000
  O   O9        1.0  0.2321006371639669  0.121735661290586  0.845545319840312  1.0000
  O   O10       1.0  0.1464222848881036  0.4749315291410312  0.8580834454041906  1.0000
  O   O11       1.0  0.7264588891994208  0.6698650004836963  0.7150898608574607  1.0000
  O   O12       1.0  0.46608933195238933  0.6729945037513971  0.6884046855848283  1.0000
  O   O13       1.0  0.07821895740926266  0.01695056352764368  0.32812125934287906  1.0000
  O   O14       1.0  0.63722188398242  0.3011515799444169  0.913949653680902  1.0000
data_image150
_chemical_formula_structural       Pr2P2H10C2O14
_chemical_formula_sum              "Pr2 P2 H10 C2 O14"
_cell_length_a       6.761788999999999
_cell_length_b       7.146483751908908
_cell_length_c       7.843598011864962
_cell_angle_alpha    110.54253585495134
_cell_angle_beta     95.79501476046597
_cell_angle_gamma    89.49575901902455

_space_group_name_H-M_alt    "P 1"
_space_group_IT_number       1

loop_
  _space_group_symop_operation_xyz
  'x, y, z'

loop_
  _atom_site_type_symbol
  _atom_site_label
  _atom_site_symmetry_multiplicity
  _atom_site_fract_x
  _atom_site_fract_y
  _atom_site_fract_z
  _atom_site_occupancy
  Pr  Pr1       1.0  0.5447715246118605  0.4290610495954752  0.10835335776209831  1.0000
  Pr  Pr2       1.0  0.6889592497609556  0.3659304715692997  0.6151563990861177  1.0000
  P   P1        1.0  0.5397284030914307  0.5710285566747189  0.20227815210819244  1.0000
  P   P2        1.0  0.2114371657371521  0.8595244735479355  0.6268533542752266  1.0000
  H   H1        1.0  0.7022596169263124  0.3337398264557123  0.22207662789151073  1.0000
  H   H2        1.0  0.11231635324656963  0.3850644491612911  0.20254329964518547  1.0000
  H   H3        1.0  0.06071779504418373  0.7399162063375115  0.12415445037186146  1.0000
  H   H4        1.0  0.7394750658422709  0.8892171625047922  0.0606795510975644  1.0000
  H   H5        1.0  0.9821971459314227  0.7441567182540894  0.4842548621818423  1.0000
  H   H6        1.0  0.626350300386548  0.7183206118643284  0.071318537928164  1.0000
  H   H7        1.0  0.176742740906775  0.03218695241957903  0.31504102051258087  1.0000
  H   H8        1.0  0.036576759070158005  0.9958265154273249  0.04904202651232481  1.0000
  H   H9        1.0  0.6061407024972141  0.03244353085756302  0.3563622245565057  1.0000
  H   H10       1.0  0.5423325449228287  0.5316694527864456  0.3423424959182739  1.0000
  C   C1        1.0  0.29387269634753466  0.9837629776448011  0.21583706699311733  1.0000
  C   C2        1.0  0.9209097338462016  0.9489708142355084  0.14999208971858025  1.0000
  O   O1        1.0  0.504334217403084  0.37743036448955536  0.3045067973434925  1.0000
  O   O2        1.0  0.2883353750221431  0.08437845949083567  0.35387107683345675  1.0000
  O   O3        1.0  0.7527419878169894  0.777697206416633  0.5912805888801813  1.0000
  O   O4        1.0  0.816345848608762  0.6039941288763657  0.6072644940577447  1.0000
  O   O5        1.0  0.5431477598613128  0.49558966897893697  0.3146006977185607  1.0000
  O   O6        1.0  0.16828347963746637  0.5079313502646983  0.6379879032901954  1.0000
  O   O7        1.0  0.7728300346061587  0.5841792449355125  0.4072075967269484  1.0000
  O   O8        1.0  0.28882419696310535  0.8523252990562469  0.12375587818678468  1.0000
  O   O9        1.0  0.2750732866115868  0.6302247105631977  0.7196347052231431  1.0000
  O   O10       1.0  0.7406146671273746  0.8433118026005104  0.6471962737268768  1.0000
  O   O11       1.0  0.9920580784091726  0.7644370743073523  0.7710468096192926  1.0000
  O   O12       1.0  0.558386317192344  0.6817764984443784  0.8779210243374109  1.0000
  O   O13       1.0  0.9659704407677054  0.4747107354924083  0.09160393057391047  1.0000
  O   O14       1.0  0.37964963680133224  0.06439118646085262  0.8756856794352643  1.0000
data_image151
_chemical_formula_structural       Pr2P2H10C2O14
_chemical_formula_sum              "Pr2 P2 H10 C2 O14"
_cell_length_a       6.761788999999999
_cell_length_b       7.146483751908908
_cell_length_c       7.843598011864962
_cell_angle_alpha    110.54253585495134
_cell_angle_beta     95.79501476046597
_cell_angle_gamma    89.49575901902455

_space_group_name_H-M_alt    "P 1"
_space_group_IT_number       1

loop_
  _space_group_symop_operation_xyz
  'x, y, z'

loop_
  _atom_site_type_symbol
  _atom_site_label
  _atom_site_symmetry_multiplicity
  _atom_site_fract_x
  _atom_site_fract_y
  _atom_site_fract_z
  _atom_site_occupancy
  Pr  Pr1       1.0  0.2161029689013958  0.42540145106613636  0.6990659534931183  1.0000
  Pr  Pr2       1.0  0.1942296619527042  0.4211532138288021  0.9252509791404009  1.0000
  P   P1        1.0  0.38286474347114563  0.11347286030650139  0.5110508650541306  1.0000
  P   P2        1.0  0.6110752522945404  0.6253030300140381  0.050549764186143875  1.0000
  H   H1        1.0  0.2669882792979479  0.6460035750642419  0.9111743695102632  1.0000
  H   H2        1.0  0.012538554146885872  0.8940134476870298  0.5064432844519615  1.0000
  H   H3        1.0  0.023244697600603104  0.4204244571737945  0.8058215361088514  1.0000
  H   H4        1.0  0.302652626298368  0.37371487775817513  0.31510454570525326  1.0000
  H   H5        1.0  0.22888392326422036  0.6594710163772106  0.47413518838584423  1.0000
  H   H6        1.0  0.2973559144884348  0.6082724165171385  0.9953021691180766  1.0000
  H   H7        1.0  0.8163668420165777  0.34433943685144186  0.36061398312449455  1.0000
  H   H8        1.0  0.26231586188077927  0.11635902902344242  0.5786529169417918  1.0000
  H   H9        1.0  0.9567219219170511  0.6743869036436081  0.9399191727861762  1.0000
  H   H10       1.0  0.9791581928730011  0.45044878125190735  0.9926701709628105  1.0000
  C   C1        1.0  0.7473031934350729  0.7453469131141901  0.8449645563960075  1.0000
  C   C2        1.0  0.6297819534374867  0.8180287946015596  0.7810645061545074  1.0000
  O   O1        1.0  0.05249369004741311  0.8089755047112703  0.905816376209259  1.0000
  O   O2        1.0  0.9101187689229846  0.7409765154588968  0.6047422266565263  1.0000
  O   O3        1.0  0.6105081257410347  0.6793523351079784  0.3748248666524887  1.0000
  O   O4        1.0  0.5892969840206206  0.4444880479713902  0.5379662921186537  1.0000
  O   O5        1.0  0.7994391906540841  0.30964049900649115  0.8144490317208692  1.0000
  O   O6        1.0  0.524873040150851  0.5055110617540777  0.2852253603050485  1.0000
  O   O7        1.0  0.9497698685154319  0.036418527364730835  0.09849328713607974  1.0000
  O   O8        1.0  0.9907629453809932  0.6760178596014157  0.4014998634811491  1.0000
  O   O9        1.0  0.2291438919492066  0.2058523604646325  0.9884411925449967  1.0000
  O   O10       1.0  0.5872090649791062  0.709769347216934  0.3097388827591203  1.0000
  O   O11       1.0  0.9062431757338345  0.1232831220549997  0.01352089224383235  1.0000
  O   O12       1.0  0.5707097316335421  0.7494440269656479  0.4127186199184507  1.0000
  O   O13       1.0  0.3372951149940491  0.2810783386230469  0.6533168153837323  1.0000
  O   O14       1.0  0.8190546203404665  0.4167298790998757  0.10510482004610822  1.0000
data_image152
_chemical_formula_structural       Pr2P2H10C2O14
_chemical_formula_sum              "Pr2 P2 H10 C2 O14"
_cell_length_a       6.761788999999999
_cell_length_b       7.146483751908908
_cell_length_c       7.843598011864962
_cell_angle_alpha    110.54253585495134
_cell_angle_beta     95.79501476046597
_cell_angle_gamma    89.49575901902455

_space_group_name_H-M_alt    "P 1"
_space_group_IT_number       1

loop_
  _space_group_symop_operation_xyz
  'x, y, z'

loop_
  _atom_site_type_symbol
  _atom_site_label
  _atom_site_symmetry_multiplicity
  _atom_site_fract_x
  _atom_site_fract_y
  _atom_site_fract_z
  _atom_site_occupancy
  Pr  Pr1       1.0  0.5940841133706272  0.9789346214383841  0.9279951192438602  1.0000
  Pr  Pr2       1.0  0.7358916546218097  0.9642166085541248  0.8536647073924541  1.0000
  P   P1        1.0  0.6804201304912567  0.6754896529018879  0.48063773661851883  1.0000
  P   P2        1.0  0.3591219335794449  0.3636448383331299  0.3992737624794245  1.0000
  H   H1        1.0  0.5160966049879789  0.7040987685322762  0.6378892404027283  1.0000
  H   H2        1.0  0.5155146643519402  0.06667082197964191  0.9729481600224972  1.0000
  H   H3        1.0  0.033938080072402954  0.8111270042136312  0.8870281353592873  1.0000
  H   H4        1.0  0.6713768132030964  0.7600680771283805  0.5508651922937133  1.0000
  H   H5        1.0  0.556631735060364  0.25254942243918777  0.33978071343153715  1.0000
  H   H6        1.0  0.3895921893417835  0.8280472308397293  0.08620049944147468  1.0000
  H   H7        1.0  0.46879017911851406  0.14498994033783674  0.09763546660542488  1.0000
  H   H8        1.0  0.5596388317644596  0.8091735037160106  0.11375128524377942  1.0000
  H   H9        1.0  0.9768658159300685  0.5392719358205795  0.8886186219751835  1.0000
  H   H10       1.0  0.8751018419861794  0.3366409055888653  0.7874591089785099  1.0000
  C   C1        1.0  0.24655582010746002  0.1722700260579586  0.29900050535798073  1.0000
  C   C2        1.0  0.26905655686277896  0.737830139696598  0.18857099069282413  1.0000
  O   O1        1.0  0.9599275947548449  0.49064648151397705  0.9166630804538727  1.0000
  O   O2        1.0  0.49598935758695006  0.875172953819856  0.855720323510468  1.0000
  O   O3        1.0  0.9988143360242248  0.6569385410402901  0.14993462339043617  1.0000
  O   O4        1.0  0.05080760829150677  0.9563770176609978  0.37014843546785414  1.0000
  O   O5        1.0  0.09424295497592539  0.2918893483001739  0.9841555764432997  1.0000
  O   O6        1.0  0.6579897376941517  0.3164431951008737  0.2801283045555465  1.0000
  O   O7        1.0  0.42344053788110614  0.13196528609842062  0.4529911997669842  1.0000
  O   O8        1.0  0.3593638828024268  0.15404305362608284  0.9874048015917651  1.0000
  O   O9        1.0  0.4533627494238317  0.20024841628037393  0.41654393542557955  1.0000
  O   O10       1.0  0.2849607953103259  0.1006480089854449  0.5252434506546706  1.0000
  O   O11       1.0  0.9937806914094836  0.27920152159640566  0.5026549213798717  1.0000
  O   O12       1.0  0.08185451370081864  0.9279540304560214  0.9412221168167889  1.0000
  O   O13       1.0  0.904382174834609  0.7355134198442101  0.7140380418859422  1.0000
  O   O14       1.0  0.6940934108570218  0.2265054581221193  0.11857024492928758  1.0000
data_image153
_chemical_formula_structural       Pr2P2H10C2O14
_chemical_formula_sum              "Pr2 P2 H10 C2 O14"
_cell_length_a       6.761788999999999
_cell_length_b       7.146483751908908
_cell_length_c       7.843598011864962
_cell_angle_alpha    110.54253585495134
_cell_angle_beta     95.79501476046597
_cell_angle_gamma    89.49575901902455

_space_group_name_H-M_alt    "P 1"
_space_group_IT_number       1

loop_
  _space_group_symop_operation_xyz
  'x, y, z'

loop_
  _atom_site_type_symbol
  _atom_site_label
  _atom_site_symmetry_multiplicity
  _atom_site_fract_x
  _atom_site_fract_y
  _atom_site_fract_z
  _atom_site_occupancy
  Pr  Pr1       1.0  0.5578393181785941  0.27294658683240414  0.868178753182292  1.0000
  Pr  Pr2       1.0  0.6835341192781925  0.5893979445099831  0.4072006940841675  1.0000
  P   P1        1.0  0.937188908457756  0.2652806527912617  0.32366298884153366  1.0000
  P   P2        1.0  0.10794773697853088  0.865926131606102  0.9129327870905399  1.0000
  H   H1        1.0  0.36264356039464474  0.728339958935976  0.1284754485823214  1.0000
  H   H2        1.0  0.9997807331383228  0.22707651741802692  0.062320489436388016  1.0000
  H   H3        1.0  0.34183381870388985  0.40089579625055194  0.9260891992598772  1.0000
  H   H4        1.0  0.6631650105118752  0.7398746944963932  0.14736871026980225  1.0000
  H   H5        1.0  0.5616266347933561  0.26222176058217883  0.19193054735660553  1.0000
  H   H6        1.0  0.6444925460964441  0.8882817067205906  0.9192368965595961  1.0000
  H   H7        1.0  0.14495744463056326  0.6315893968567252  0.42321042343974113  1.0000
  H   H8        1.0  0.7763937935233116  0.6610476693604141  0.7259216690436006  1.0000
  H   H9        1.0  0.8165260767564178  0.19304108247160912  0.8600440761074424  1.0000
  H   H10       1.0  0.10621960088610649  0.07041541114449501  0.2049250341951847  1.0000
  C   C1        1.0  0.8452068287879229  0.03292878717184067  0.08132019825279713  1.0000
  C   C2        1.0  0.21782724908553064  0.2045857347548008  0.12751876655966043  1.0000
  O   O1        1.0  0.6207189802080393  0.24298874102532864  0.4515850394964218  1.0000
  O   O2        1.0  0.22604280710220337  0.7071713674813509  0.5863213038101094  1.0000
  O   O3        1.0  0.6232985947281122  0.8479953474015929  0.7647512052208185  1.0000
  O   O4        1.0  0.9184044608846307  0.5122979177394882  0.7267482685856521  1.0000
  O   O5        1.0  0.22951763204764575  0.1607832721201703  0.8484537190524861  1.0000
  O   O6        1.0  0.1500350859714672  0.29434085451066494  0.5061268597200979  1.0000
  O   O7        1.0  0.09596530301496387  0.13054568506777287  0.4070131286571268  1.0000
  O   O8        1.0  0.9880633756984025  0.4767391899804352  0.5392156820744276  1.0000
  O   O9        1.0  0.09770628763362765  0.9002721640281379  0.3215725990012288  1.0000
  O   O10       1.0  0.9118294394575059  0.9428883701330051  0.19460871018236503  1.0000
  O   O11       1.0  0.7058493330841884  0.4138410804735031  0.6638896256336011  1.0000
  O   O12       1.0  0.763248660165118  0.3241556577850133  0.767519544577226  1.0000
  O   O13       1.0  0.7809139061719179  0.0782504715025425  0.4159390367567539  1.0000
  O   O14       1.0  0.9040870540775359  0.5553980162367225  0.6492776423692703  1.0000
data_image154
_chemical_formula_structural       Pr2P2H10C2O14
_chemical_formula_sum              "Pr2 P2 H10 C2 O14"
_cell_length_a       6.761788999999999
_cell_length_b       7.146483751908908
_cell_length_c       7.843598011864962
_cell_angle_alpha    110.54253585495134
_cell_angle_beta     95.79501476046597
_cell_angle_gamma    89.49575901902455

_space_group_name_H-M_alt    "P 1"
_space_group_IT_number       1

loop_
  _space_group_symop_operation_xyz
  'x, y, z'

loop_
  _atom_site_type_symbol
  _atom_site_label
  _atom_site_symmetry_multiplicity
  _atom_site_fract_x
  _atom_site_fract_y
  _atom_site_fract_z
  _atom_site_occupancy
  Pr  Pr1       1.0  0.1425425512716174  0.011514518409967422  0.9406709112226963  1.0000
  Pr  Pr2       1.0  0.9852602840401232  0.0035802647471427917  0.7638988420367241  1.0000
  P   P1        1.0  0.6361191421747208  0.6706538945436478  0.5810765996575356  1.0000
  P   P2        1.0  0.9831949472427368  0.2502228170633316  0.757000245153904  1.0000
  H   H1        1.0  0.8604709273204207  0.20953309163451195  0.2063859780319035  1.0000
  H   H2        1.0  0.12707000225782394  0.04913187213242054  0.36998674273490906  1.0000
  H   H3        1.0  0.9530668258666992  0.5561530259437859  0.7873205058276653  1.0000
  H   H4        1.0  0.2830798486247659  0.6147293082904071  0.6927056367130717  1.0000
  H   H5        1.0  0.6454597000265494  0.09010856645181775  0.08486676216125488  1.0000
  H   H6        1.0  0.9519811030477285  0.2369722556322813  0.1800498398952186  1.0000
  H   H7        1.0  0.9129166454076767  0.4902603132650256  0.6852593757212162  1.0000
  H   H8        1.0  0.5575302466750145  0.10317780822515488  0.9269111601170152  1.0000
  H   H9        1.0  0.8321100962348282  0.48118700832128525  0.7330102315172553  1.0000
  H   H10       1.0  0.9249316584318876  0.7308384440839291  0.10137105733156204  1.0000
  C   C1        1.0  0.529284150339663  0.677067594602704  0.586854562163353  1.0000
  C   C2        1.0  0.8876675656065345  0.33635292761027813  0.08968594204634428  1.0000
  O   O1        1.0  0.8351692478172481  0.6083791051059961  0.8314098939299583  1.0000
  O   O2        1.0  0.24326891778036952  0.79450893541798  0.6522498793783598  1.0000
  O   O3        1.0  0.29387937765568495  0.2628311518346891  0.4746578820049763  1.0000
  O   O4        1.0  0.9432786866091192  0.6869295233627781  0.1373513787984848  1.0000
  O   O5        1.0  0.21224312752019614  0.43026012321934104  0.8756451912922785  1.0000
  O   O6        1.0  0.7108223404502496  0.18774485774338245  0.008184634760254994  1.0000
  O   O7        1.0  0.24507120670750737  0.2600313564762473  0.1447323834290728  1.0000
  O   O8        1.0  0.1845732294023037  0.2705085817251529  0.14286700158845633  1.0000
  O   O9        1.0  0.42904805624857545  0.3005601745098829  0.9481551647186279  1.0000
  O   O10       1.0  0.5862571796169505  0.6347740638302639  0.5355725326226093  1.0000
  O   O11       1.0  0.7485127586405724  0.7904665166279301  0.6296413335658144  1.0000
  O   O12       1.0  0.27271036413731053  0.8827654174529016  0.6066594980657101  1.0000
  O   O13       1.0  0.7265754668042064  0.8331759134307504  0.3669117852114141  1.0000
  O   O14       1.0  0.4824667628854513  0.8969829264096916  0.4641503642196767  1.0000
data_image155
_chemical_formula_structural       Pr2P2H10C2O14
_chemical_formula_sum              "Pr2 P2 H10 C2 O14"
_cell_length_a       6.761788999999999
_cell_length_b       7.146483751908908
_cell_length_c       7.843598011864962
_cell_angle_alpha    110.54253585495134
_cell_angle_beta     95.79501476046597
_cell_angle_gamma    89.49575901902455

_space_group_name_H-M_alt    "P 1"
_space_group_IT_number       1

loop_
  _space_group_symop_operation_xyz
  'x, y, z'

loop_
  _atom_site_type_symbol
  _atom_site_label
  _atom_site_symmetry_multiplicity
  _atom_site_fract_x
  _atom_site_fract_y
  _atom_site_fract_z
  _atom_site_occupancy
  Pr  Pr1       1.0  0.6190140764229  0.15021909959614277  0.7632603663951159  1.0000
  Pr  Pr2       1.0  0.13099617278203368  0.6625314615666866  0.8192320074886084  1.0000
  P   P1        1.0  0.9636433869600296  0.30731838196516037  0.5472629740834236  1.0000
  P   P2        1.0  0.6880246996879578  0.5262141525745392  0.5724915750324726  1.0000
  H   H1        1.0  0.09423884749412537  0.9385089604184031  0.0899775461293757  1.0000
  H   H2        1.0  0.03859272971749306  0.8190968167036772  0.3949217088520527  1.0000
  H   H3        1.0  0.28896738588809967  0.6940636094659567  0.7242887448519468  1.0000
  H   H4        1.0  0.5006691552698612  0.32553138909861445  0.06407950099674053  1.0000
  H   H5        1.0  0.3856365173123777  0.8410929813981056  0.7302892953157425  1.0000
  H   H6        1.0  0.27831145003437996  0.27538679726421833  0.6748358462937176  1.0000
  H   H7        1.0  0.11048100888729095  0.05003927182406187  0.62625402957201  1.0000
  H   H8        1.0  0.4060171842575073  0.6372864186996594  0.884027405641973  1.0000
  H   H9        1.0  0.9231808227486908  0.631175447255373  0.6788210216909647  1.0000
  H   H10       1.0  0.4155037887394428  0.867977749556303  0.9452178068459034  1.0000
  C   C1        1.0  0.5442243833094835  0.12062742374837399  0.8742262199521065  1.0000
  C   C2        1.0  0.18504613905679435  0.12946971412748098  0.7841673539951444  1.0000
  O   O1        1.0  0.3972512991167605  0.13421842828392982  0.16642064601182938  1.0000
  O   O2        1.0  0.6972070867195725  0.5549464672803879  0.2722646134207025  1.0000
  O   O3        1.0  0.7713207798078656  0.13388628532993607  0.7482073996216059  1.0000
  O   O4        1.0  0.19792121555656195  0.39111041533760726  0.3889288369100541  1.0000
  O   O5        1.0  0.14917516987770796  0.09154457156546414  0.394210766768083  1.0000
  O   O6        1.0  0.4895524511812255  0.6986599874217063  0.026361187134170905  1.0000
  O   O7        1.0  0.6066908971406519  0.7817180845886469  0.7684223977557849  1.0000
  O   O8        1.0  0.683614756911993  0.44270457689617615  0.34281369677046314  1.0000
  O   O9        1.0  0.31427273247390985  0.49928807420656085  0.28362571634352207  1.0000
  O   O10       1.0  0.40113094222033396  0.061457462259568274  0.21232512354617938  1.0000
  O   O11       1.0  0.3783036111854017  0.18867951107677072  0.4447866717528086  1.0000
  O   O12       1.0  0.1447749633807689  0.5888092145323753  0.7170759714208543  1.0000
  O   O13       1.0  0.3877105340361595  0.21787939872592688  0.13749905629083514  1.0000
  O   O14       1.0  0.2807532954029739  0.6945355862844735  0.15508146671345457  1.0000
data_image156
_chemical_formula_structural       Pr2P2H10C2O14
_chemical_formula_sum              "Pr2 P2 H10 C2 O14"
_cell_length_a       6.761788999999999
_cell_length_b       7.146483751908908
_cell_length_c       7.843598011864962
_cell_angle_alpha    110.54253585495134
_cell_angle_beta     95.79501476046597
_cell_angle_gamma    89.49575901902455

_space_group_name_H-M_alt    "P 1"
_space_group_IT_number       1

loop_
  _space_group_symop_operation_xyz
  'x, y, z'

loop_
  _atom_site_type_symbol
  _atom_site_label
  _atom_site_symmetry_multiplicity
  _atom_site_fract_x
  _atom_site_fract_y
  _atom_site_fract_z
  _atom_site_occupancy
  Pr  Pr1       1.0  0.7563173514790833  0.6186247691512108  0.8540157433599234  1.0000
  Pr  Pr2       1.0  0.3869303069077432  0.18990710005164146  0.5581234060227871  1.0000
  P   P1        1.0  0.2517494261264801  0.3379148952662945  0.05671485513448715  1.0000
  P   P2        1.0  0.3509959727525711  0.6125849187374115  0.8313603699207306  1.0000
  H   H1        1.0  0.877904444001615  0.8110569976270199  0.929240521043539  1.0000
  H   H2        1.0  0.06121834181249142  0.5974686406552792  0.06766882166266441  1.0000
  H   H3        1.0  0.5004980191588402  0.41764901019632816  0.725117277354002  1.0000
  H   H4        1.0  0.8388996720314026  0.27698111068457365  0.5007773578690831  1.0000
  H   H5        1.0  0.8840946055715904  0.9946088828146458  0.46278221160173416  1.0000
  H   H6        1.0  0.9340838044881821  0.4296995345503092  0.7352080596610904  1.0000
  H   H7        1.0  0.5633573969826102  0.31302589550614357  0.36837026104331017  1.0000
  H   H8        1.0  0.7009922116994858  0.16709758643992245  0.8929710125084966  1.0000
  H   H9        1.0  0.6814615181647241  0.9075377099215984  0.054645528085529804  1.0000
  H   H10       1.0  0.7385061010718346  0.6192443370819092  0.710528701543808  1.0000
  C   C1        1.0  0.7207272527739406  0.12991993594914675  0.6849706526845694  1.0000
  C   C2        1.0  0.565425408189185  0.19418378453701735  0.8866042289882898  1.0000
  O   O1        1.0  0.8039641072973609  0.252277921885252  0.9959727264940739  1.0000
  O   O2        1.0  0.19905341137200594  0.6239652968943119  0.5186463668942451  1.0000
  O   O3        1.0  0.1802081777714193  0.9087633492599707  0.994903028011322  1.0000
  O   O4        1.0  0.529032118152827  0.9557433456648141  0.39152150182053447  1.0000
  O   O5        1.0  0.4902797853574157  0.5081279398291372  0.26251102704554796  1.0000
  O   O6        1.0  0.8824162721866742  0.4898231460247189  0.8357386361458339  1.0000
  O   O7        1.0  0.3666526088491082  0.02619259897619486  0.670672129286686  1.0000
  O   O8        1.0  0.5157565525732934  0.3919603098620428  0.7270202934741974  1.0000
  O   O9        1.0  0.8942567785270512  0.1086805381346494  0.9171386417001486  1.0000
  O   O10       1.0  0.04632634506560862  0.8294176865601912  0.6599800857366063  1.0000
  O   O11       1.0  0.6417498028604314  0.08921004447620362  0.5580672344076447  1.0000
  O   O12       1.0  0.017937154043465853  0.70763791911304  0.30606841016560793  1.0000
  O   O13       1.0  0.7282907124608755  0.7965415446087718  0.8775966418907046  1.0000
  O   O14       1.0  0.17693342827260494  0.24640194908715785  0.36443558847531676  1.0000
data_image157
_chemical_formula_structural       Pr2P2H10C2O14
_chemical_formula_sum              "Pr2 P2 H10 C2 O14"
_cell_length_a       6.761788999999999
_cell_length_b       7.146483751908908
_cell_length_c       7.843598011864962
_cell_angle_alpha    110.54253585495134
_cell_angle_beta     95.79501476046597
_cell_angle_gamma    89.49575901902455

_space_group_name_H-M_alt    "P 1"
_space_group_IT_number       1

loop_
  _space_group_symop_operation_xyz
  'x, y, z'

loop_
  _atom_site_type_symbol
  _atom_site_label
  _atom_site_symmetry_multiplicity
  _atom_site_fract_x
  _atom_site_fract_y
  _atom_site_fract_z
  _atom_site_occupancy
  Pr  Pr1       1.0  0.5892306575551629  0.5762925799936056  0.4377539735287428  1.0000
  Pr  Pr2       1.0  0.1457999530248344  0.7542834654450417  0.16941631771624088  1.0000
  P   P1        1.0  0.5768072456121445  0.9641457796096802  0.8493649885058403  1.0000
  P   P2        1.0  0.1510772556066513  0.6477100849151611  0.035990212112665176  1.0000
  H   H1        1.0  0.4710947163403034  0.27578746154904366  0.47900753701105714  1.0000
  H   H2        1.0  0.8819908611476421  0.9644727297127247  0.9936662428081036  1.0000
  H   H3        1.0  0.7665745429694653  0.17104764562100172  0.24996649660170078  1.0000
  H   H4        1.0  0.11666642874479294  0.6643325523473322  0.04725794235127978  1.0000
  H   H5        1.0  0.6053785108961165  0.2389023273717612  0.5155750066041946  1.0000
  H   H6        1.0  0.586040485650301  0.29403973557054996  0.11675553862005472  1.0000
  H   H7        1.0  0.8277717102319002  0.2972155846655369  0.17146915197372437  1.0000
  H   H8        1.0  0.4037964344024658  0.6904441737569869  0.7432590844109654  1.0000
  H   H9        1.0  0.9007647386752069  0.7816340401768684  0.7088943487033248  1.0000
  H   H10       1.0  0.3904440104961395  0.45215918123722076  0.368992380797863  1.0000
  C   C1        1.0  0.9468248086050153  0.3737065764144063  0.07871134020388126  1.0000
  C   C2        1.0  0.5849084582878277  0.3406300004571676  0.559573539532721  1.0000
  O   O1        1.0  0.03591775381937623  0.8293863330036402  0.5903878062963486  1.0000
  O   O2        1.0  0.3232776946388185  0.6303622401319444  0.7344155982136726  1.0000
  O   O3        1.0  0.2037017261609435  0.6496390619140584  0.16567520424723625  1.0000
  O   O4        1.0  0.8258122126571834  0.3147358262212947  0.9265933488495648  1.0000
  O   O5        1.0  0.4108822444686666  0.9213890928222099  0.6014559119939804  1.0000
  O   O6        1.0  0.1938881668029353  0.8045465778559446  0.41738808137597516  1.0000
  O   O7        1.0  0.8688473738729954  0.34879945777356625  0.4779945906193461  1.0000
  O   O8        1.0  0.3929751361720264  0.748269512432671  0.39726330735720694  1.0000
  O   O9        1.0  0.9370229486376047  0.17387873586267233  0.7407092787325382  1.0000
  O   O10       1.0  0.38140805572038516  0.7407867858419195  0.8500601054402068  1.0000
  O   O11       1.0  0.4266523001715541  0.2805102814163547  0.535238842606077  1.0000
  O   O12       1.0  0.03192180430050939  0.5037273745983839  0.34057617490179837  1.0000
  O   O13       1.0  0.2509130733087659  0.9906520023941994  0.05681553157046437  1.0000
  O   O14       1.0  0.4166263062506914  0.675926033873111  0.6358977174968459  1.0000
data_image158
_chemical_formula_structural       Pr2P2H10C2O14
_chemical_formula_sum              "Pr2 P2 H10 C2 O14"
_cell_length_a       6.761788999999999
_cell_length_b       7.146483751908908
_cell_length_c       7.843598011864962
_cell_angle_alpha    110.54253585495134
_cell_angle_beta     95.79501476046597
_cell_angle_gamma    89.49575901902455

_space_group_name_H-M_alt    "P 1"
_space_group_IT_number       1

loop_
  _space_group_symop_operation_xyz
  'x, y, z'

loop_
  _atom_site_type_symbol
  _atom_site_label
  _atom_site_symmetry_multiplicity
  _atom_site_fract_x
  _atom_site_fract_y
  _atom_site_fract_z
  _atom_site_occupancy
  Pr  Pr1       1.0  0.44364685053005815  0.4552922286093235  0.05982891097664833  1.0000
  Pr  Pr2       1.0  0.8756794966757298  0.12252995371818542  0.7586581986397505  1.0000
  P   P1        1.0  0.519814059138298  0.5792510397732258  0.6371384784579277  1.0000
  P   P2        1.0  0.7230169624090195  0.08531773090362549  0.9573448076844215  1.0000
  H   H1        1.0  0.08497533667832613  0.24520441517233849  0.8856971673667431  1.0000
  H   H2        1.0  0.7685976270586252  0.13067946583032608  0.4961562305688858  1.0000
  H   H3        1.0  0.270333431661129  0.8742290548980236  0.5878003165125847  1.0000
  H   H4        1.0  0.3034802805632353  0.2557975295931101  0.9251968483440578  1.0000
  H   H5        1.0  0.041442490415647626  0.9337058419478126  0.31673718988895416  1.0000
  H   H6        1.0  0.7635914422571659  0.6212405730038881  0.46995373675599694  1.0000
  H   H7        1.0  0.5055381366983056  0.60748824570328  0.5848400369286537  1.0000
  H   H8        1.0  0.5257315188646317  0.36901420960202813  0.9215381878893822  1.0000
  H   H9        1.0  0.4132189336232841  0.7870417311787605  0.3514266964048147  1.0000
  H   H10       1.0  0.27901502326130867  0.12196752801537514  0.47744474187493324  1.0000
  C   C1        1.0  0.5867391284555197  0.7169405529275537  0.06531569361686707  1.0000
  C   C2        1.0  0.8940940302563831  0.3323449194431305  0.9265395663678646  1.0000
  O   O1        1.0  0.07629201235249639  0.22525150328874588  0.5469819866120815  1.0000
  O   O2        1.0  0.5558698903769255  0.586123357526958  0.3266566455713473  1.0000
  O   O3        1.0  0.43489567562937737  0.6901769764372148  0.9139799419790506  1.0000
  O   O4        1.0  0.7141029345802963  0.48999262030702084  0.13143699243664742  1.0000
  O   O5        1.0  0.3883755440765526  0.5279928930976894  0.37595446105115116  1.0000
  O   O6        1.0  0.661481894669123  0.1635397095233202  0.4442337080545258  1.0000
  O   O7        1.0  0.08050285559147596  0.3789175422862172  0.6001871545158792  1.0000
  O   O8        1.0  0.33324046595953405  0.6899327853279829  0.0008389118011109531  1.0000
  O   O9        1.0  0.290401064325124  0.8941319605801255  0.007732817903161049  1.0000
  O   O10       1.0  0.605421689862851  0.6253754389472306  0.8963299014430959  1.0000
  O   O11       1.0  0.5660788044333458  0.2658382692025043  0.4222736913943663  1.0000
  O   O12       1.0  0.1567707973299548  0.36672757286578417  0.8137439670972526  1.0000
  O   O13       1.0  0.559943150728941  0.14800734631717205  0.9657134334556758  1.0000
  O   O14       1.0  0.9795108858961612  0.3905137521214783  0.1621005613123998  1.0000
data_image159
_chemical_formula_structural       Pr2P2H10C2O14
_chemical_formula_sum              "Pr2 P2 H10 C2 O14"
_cell_length_a       6.761788999999999
_cell_length_b       7.146483751908908
_cell_length_c       7.843598011864962
_cell_angle_alpha    110.54253585495134
_cell_angle_beta     95.79501476046597
_cell_angle_gamma    89.49575901902455

_space_group_name_H-M_alt    "P 1"
_space_group_IT_number       1

loop_
  _space_group_symop_operation_xyz
  'x, y, z'

loop_
  _atom_site_type_symbol
  _atom_site_label
  _atom_site_symmetry_multiplicity
  _atom_site_fract_x
  _atom_site_fract_y
  _atom_site_fract_z
  _atom_site_occupancy
  Pr  Pr1       1.0  0.904892067424953  0.3498528879135847  0.7764091454446316  1.0000
  Pr  Pr2       1.0  0.17967262165620923  0.8541439212858677  0.07697430066764355  1.0000
  P   P1        1.0  0.031076788902282715  0.3832181580364704  0.2353604957461357  1.0000
  P   P2        1.0  0.03631940484046936  0.15566176176071167  0.9564935341477394  1.0000
  H   H1        1.0  0.4145895717665553  0.7659093532711267  0.14925347082316875  1.0000
  H   H2        1.0  0.44974602200090885  0.6944062411785126  0.34612711519002914  1.0000
  H   H3        1.0  0.06152724288403988  0.9532438684254885  0.6147363856434822  1.0000
  H   H4        1.0  0.43545985594391823  0.3584369975142181  0.7489095286582597  1.0000
  H   H5        1.0  0.18273349292576313  0.5395083371549845  0.6621966287493706  1.0000
  H   H6        1.0  0.16295353136956692  0.015447186306118965  0.30008862586691976  1.0000
  H   H7        1.0  0.007275058887898922  0.30179454758763313  0.10963312163949013  1.0000
  H   H8        1.0  0.2860003262758255  0.6925984958652407  0.0740368994884193  1.0000
  H   H9        1.0  0.3044646391645074  0.04274887591600418  0.6072311690077186  1.0000
  H   H10       1.0  0.9952918943017721  0.36390386894345284  0.4503300152719021  1.0000
  C   C1        1.0  0.6590787693858147  0.6523532252758741  0.8509975206106901  1.0000
  C   C2        1.0  0.30731908534653485  0.6370783671736717  0.3034174218773842  1.0000
  O   O1        1.0  0.7924798061139882  0.3896403480321169  0.3866458684206009  1.0000
  O   O2        1.0  0.9643987664021552  0.0908015666063875  0.3461138432357984  1.0000
  O   O3        1.0  0.3895903183147311  0.41918316460214555  0.5705385133624077  1.0000
  O   O4        1.0  0.580610812176019  0.6625743409385905  0.16685428260825574  1.0000
  O   O5        1.0  0.09392585564637557  0.8439292656403268  0.7145673836348578  1.0000
  O   O6        1.0  0.9188096252037212  0.1445482070557773  0.5019680000987137  1.0000
  O   O7        1.0  0.197021774481982  0.8203727686777711  0.48350704528274946  1.0000
  O   O8        1.0  0.9929341685492545  0.25321449139300967  0.118427878129296  1.0000
  O   O9        1.0  0.3329853629693389  0.8705472887959331  0.8433591146022081  1.0000
  O   O10       1.0  0.7926115124719217  0.05960364767815918  0.8175769300141837  1.0000
  O   O11       1.0  0.7588929985649884  0.5269342401297763  0.24980618222616613  1.0000
  O   O12       1.0  0.13471038814168423  0.41124002961441875  0.6582853929139674  1.0000
  O   O13       1.0  0.4301732052117586  0.3280688636004925  0.16352161206305027  1.0000
  O   O14       1.0  0.1953128764871508  0.42149575473740697  0.3063467865868006  1.0000
data_image160
_chemical_formula_structural       Pr2P2H10C2O14
_chemical_formula_sum              "Pr2 P2 H10 C2 O14"
_cell_length_a       6.761788999999999
_cell_length_b       7.146483751908908
_cell_length_c       7.843598011864962
_cell_angle_alpha    110.54253585495134
_cell_angle_beta     95.79501476046597
_cell_angle_gamma    89.49575901902455

_space_group_name_H-M_alt    "P 1"
_space_group_IT_number       1

loop_
  _space_group_symop_operation_xyz
  'x, y, z'

loop_
  _atom_site_type_symbol
  _atom_site_label
  _atom_site_symmetry_multiplicity
  _atom_site_fract_x
  _atom_site_fract_y
  _atom_site_fract_z
  _atom_site_occupancy
  Pr  Pr1       1.0  0.6549168480560184  0.2568076327443123  0.4224256109446287  1.0000
  Pr  Pr2       1.0  0.6840438144281507  0.3261883668601513  0.3110318947583437  1.0000
  P   P1        1.0  0.3713884949684143  0.951892226934433  0.7003584429621696  1.0000
  P   P2        1.0  0.5023451000452042  0.153550922870636  0.8467249684035778  1.0000
  H   H1        1.0  0.41914696153253317  0.2851039608940482  0.8580721959006041  1.0000
  H   H2        1.0  0.4839969091117382  0.8375602308660746  0.6799367293715477  1.0000
  H   H3        1.0  0.5127391684800386  0.06517225503921509  0.10883203148841858  1.0000
  H   H4        1.0  0.7346947137266397  0.18670409126207232  0.5796424742147792  1.0000
  H   H5        1.0  0.5368958234321326  0.9993373984470963  0.5252035930752754  1.0000
  H   H6        1.0  0.39281137473881245  0.8373739868402481  0.17670874577015638  1.0000
  H   H7        1.0  0.09167569689452648  0.3512621344998479  0.275341272354126  1.0000
  H   H8        1.0  0.4815356507897377  0.7910914735402912  0.9748340244404972  1.0000
  H   H9        1.0  0.9631778351031244  0.20287327468395233  0.04160351864993572  1.0000
  H   H10       1.0  0.46520897559821606  0.7087831161916256  0.4844656065106392  1.0000
  C   C1        1.0  0.20759893022477627  0.8478846065700054  0.9132960941642523  1.0000
  C   C2        1.0  0.8602032281924039  0.8412931393831968  0.9543698774650693  1.0000
  O   O1        1.0  0.3538392363116145  0.41795554757118225  0.2173020914196968  1.0000
  O   O2        1.0  0.2347268145531416  0.0007178389932960272  0.5274669199861819  1.0000
  O   O3        1.0  0.7368286452256143  0.010230015497654676  0.6186191644519567  1.0000
  O   O4        1.0  0.55406747572124  0.7166333848144859  0.7545586524065584  1.0000
  O   O5        1.0  0.3293321116361767  0.4508421258069575  0.580519278650172  1.0000
  O   O6        1.0  0.43884780653752387  0.6510517233982682  0.16701716327224858  1.0000
  O   O7        1.0  0.48049249732866883  0.3014228530228138  0.8253675223095343  1.0000
  O   O8        1.0  0.988109796307981  0.4314167564298259  0.3297255859943107  1.0000
  O   O9        1.0  0.6050520339049399  0.48788583162240684  0.1821323223412037  1.0000
  O   O10       1.0  0.8787663097609766  0.5880194135243073  0.9872307191835716  1.0000
  O   O11       1.0  0.8795470262411982  0.4200166880618781  0.5314122070558369  1.0000
  O   O12       1.0  0.16192384669557214  0.951381147839129  0.6148531646467745  1.0000
  O   O13       1.0  0.7183470837771893  0.21693032048642635  0.24900148110464215  1.0000
  O   O14       1.0  0.6423979357350618  0.10335266962647438  0.37262342966278084  1.0000
data_image161
_chemical_formula_structural       Pr2P2H10C2O14
_chemical_formula_sum              "Pr2 P2 H10 C2 O14"
_cell_length_a       6.761788999999999
_cell_length_b       7.146483751908908
_cell_length_c       7.843598011864962
_cell_angle_alpha    110.54253585495134
_cell_angle_beta     95.79501476046597
_cell_angle_gamma    89.49575901902455

_space_group_name_H-M_alt    "P 1"
_space_group_IT_number       1

loop_
  _space_group_symop_operation_xyz
  'x, y, z'

loop_
  _atom_site_type_symbol
  _atom_site_label
  _atom_site_symmetry_multiplicity
  _atom_site_fract_x
  _atom_site_fract_y
  _atom_site_fract_z
  _atom_site_occupancy
  Pr  Pr1       1.0  0.9355255300179124  0.10588590987026691  0.18963936530053616  1.0000
  Pr  Pr2       1.0  0.6700935182161629  0.3843555115163326  0.6935960873961449  1.0000
  P   P1        1.0  0.2776789665222168  0.6374128572642803  0.8460203483700752  1.0000
  P   P2        1.0  0.06859485805034637  0.24426858127117157  0.9181176610291004  1.0000
  H   H1        1.0  0.9797669947147369  0.5486786756664515  0.47034352738410234  1.0000
  H   H2        1.0  0.6407829076051712  0.12398345209658146  0.6337914802134037  1.0000
  H   H3        1.0  0.8864073138684034  0.6064609028398991  0.45906518027186394  1.0000
  H   H4        1.0  0.5153348157182336  0.450595666654408  0.6323567570652813  1.0000
  H   H5        1.0  0.7476485352963209  0.7563368026167154  0.31564590334892273  1.0000
  H   H6        1.0  0.9780604857951403  0.3001675121486187  0.033887156285345554  1.0000
  H   H7        1.0  0.10589093528687954  0.4982813261449337  0.9930967092514038  1.0000
  H   H8        1.0  0.9198175892233849  0.06811906071379781  0.11287848791107535  1.0000
  H   H9        1.0  0.8298869701102376  0.521504633128643  0.35153618920594454  1.0000
  H   H10       1.0  0.7794189862906933  0.43763501942157745  0.45282747969031334  1.0000
  C   C1        1.0  0.041859403252601624  0.28008126746863127  0.10006757080554962  1.0000
  C   C2        1.0  0.9988574923481792  0.6061906069517136  0.7216526176780462  1.0000
  O   O1        1.0  0.24935301672667265  0.10676051676273346  0.756791215389967  1.0000
  O   O2        1.0  0.8266214681789279  0.6575591524597257  0.554353665385861  1.0000
  O   O3        1.0  0.9265416213311255  0.5686696292832494  0.6002328917384148  1.0000
  O   O4        1.0  0.10309203155338764  0.7081473969155923  0.4918310069479048  1.0000
  O   O5        1.0  0.3317923764116131  0.7939620862161973  0.4967847391963005  1.0000
  O   O6        1.0  0.6641484806314111  0.6564489789307117  0.8049479540932225  1.0000
  O   O7        1.0  0.7887202701531351  0.15239660255610943  0.7364578619599342  1.0000
  O   O8        1.0  0.8644448141567409  0.322320793493418  0.09673433122225106  1.0000
  O   O9        1.0  0.7817168631590903  0.6435761516913772  0.6575361546128988  1.0000
  O   O10       1.0  0.14032513624988496  0.04108676465693861  0.15641668110038154  1.0000
  O   O11       1.0  0.5429245755076408  0.3126541565870866  0.2508880700916052  1.0000
  O   O12       1.0  0.6841535943094641  0.6783138536848128  0.055821289075538516  1.0000
  O   O13       1.0  0.5172123797237873  0.6581284636631608  0.6038947268389165  1.0000
  O   O14       1.0  0.5165381226688623  0.25551812816411257  0.17606615595286712  1.0000
data_image162
_chemical_formula_structural       Pr2P2H10C2O14
_chemical_formula_sum              "Pr2 P2 H10 C2 O14"
_cell_length_a       6.761788999999999
_cell_length_b       7.146483751908908
_cell_length_c       7.843598011864962
_cell_angle_alpha    110.54253585495134
_cell_angle_beta     95.79501476046597
_cell_angle_gamma    89.49575901902455

_space_group_name_H-M_alt    "P 1"
_space_group_IT_number       1

loop_
  _space_group_symop_operation_xyz
  'x, y, z'

loop_
  _atom_site_type_symbol
  _atom_site_label
  _atom_site_symmetry_multiplicity
  _atom_site_fract_x
  _atom_site_fract_y
  _atom_site_fract_z
  _atom_site_occupancy
  Pr  Pr1       1.0  0.10013754479587078  0.24143225699663162  0.6498465724289417  1.0000
  Pr  Pr2       1.0  0.8603229166474193  0.0009047836065292358  0.6491767708212137  1.0000
  P   P1        1.0  0.6125340163707733  0.4215303286910057  0.5442282408475876  1.0000
  P   P2        1.0  0.06919722259044647  0.2765347361564636  0.16067305952310562  1.0000
  H   H1        1.0  0.18072200194001198  0.586671163327992  0.20760308764874935  1.0000
  H   H2        1.0  0.551190972328186  0.42339760810136795  0.7760015241801739  1.0000
  H   H3        1.0  0.8562433589249849  0.8207914307713509  0.9135373085737228  1.0000
  H   H4        1.0  0.07277952320873737  0.6973000108264387  0.7382069503655657  1.0000
  H   H5        1.0  0.7952208039350808  0.6635611166711897  0.06389067322015762  1.0000
  H   H6        1.0  0.2510279845446348  0.6667030714452267  0.3368289773352444  1.0000
  H   H7        1.0  0.5054162507876754  0.7695842832326889  0.17683301866054535  1.0000
  H   H8        1.0  0.5703929290175438  0.8219992890954018  0.7909983445424587  1.0000
  H   H9        1.0  0.8657972849905491  0.4140006136149168  0.7245922153815627  1.0000
  H   H10       1.0  0.29092007875442505  0.5278140716254711  0.7364799119532108  1.0000
  C   C1        1.0  0.4139461209997535  0.09430015459656715  0.8764876592904329  1.0000
  C   C2        1.0  0.9299228435847908  0.40842165146023035  0.901271135546267  1.0000
  O   O1        1.0  0.2375941788777709  0.4112275764346123  0.9496376365423203  1.0000
  O   O2        1.0  0.25971130887046456  0.37651383923366666  0.07775963432504795  1.0000
  O   O3        1.0  0.7501470171846449  0.7468271114630625  0.22878416255116463  1.0000
  O   O4        1.0  0.7686246782541275  0.6320080724544823  0.3803694546222687  1.0000
  O   O5        1.0  0.7922118071001023  0.6197061331768055  0.32304022752214223  1.0000
  O   O6        1.0  0.6068700798787177  0.6505127258133143  0.08190817502327263  1.0000
  O   O7        1.0  0.5365325664170086  0.0716885169968009  0.13041520630940795  1.0000
  O   O8        1.0  0.7190210958942771  0.6637328512879321  0.6732726058107801  1.0000
  O   O9        1.0  0.9143833220005035  0.1793976245680824  0.9751656204462051  1.0000
  O   O10       1.0  0.12893214117502794  0.6275689462199807  0.6391859782161191  1.0000
  O   O11       1.0  0.9873291938565671  0.4829785261536017  0.8342529737856239  1.0000
  O   O12       1.0  0.29276355099864304  0.17587654432281852  0.29341613524593413  1.0000
  O   O13       1.0  0.9764679064974189  0.8394399844110012  0.9682149458676577  1.0000
  O   O14       1.0  0.0982984327711165  0.0853104442358017  0.24063883628696203  1.0000
data_image163
_chemical_formula_structural       Pr2P2H10C2O14
_chemical_formula_sum              "Pr2 P2 H10 C2 O14"
_cell_length_a       6.761788999999999
_cell_length_b       7.146483751908908
_cell_length_c       7.843598011864962
_cell_angle_alpha    110.54253585495134
_cell_angle_beta     95.79501476046597
_cell_angle_gamma    89.49575901902455

_space_group_name_H-M_alt    "P 1"
_space_group_IT_number       1

loop_
  _space_group_symop_operation_xyz
  'x, y, z'

loop_
  _atom_site_type_symbol
  _atom_site_label
  _atom_site_symmetry_multiplicity
  _atom_site_fract_x
  _atom_site_fract_y
  _atom_site_fract_z
  _atom_site_occupancy
  Pr  Pr1       1.0  0.5043352507054806  0.5580267254263163  0.46443807892501354  1.0000
  Pr  Pr2       1.0  0.17745599104091525  0.4608153812587261  0.81500094383955  1.0000
  P   P1        1.0  0.9547325074672699  0.9403397589921951  0.4781274124979973  1.0000
  P   P2        1.0  0.7472608238458633  0.3439154773950577  0.518207885324955  1.0000
  H   H1        1.0  0.5155930258333683  0.6184312282130122  0.4928372334688902  1.0000
  H   H2        1.0  0.9040443385019898  0.8304966855794191  0.6643301472067833  1.0000
  H   H3        1.0  0.34802032075822353  0.9383250698447227  0.35173526778817177  1.0000
  H   H4        1.0  0.8487786389887333  0.2809105943888426  0.8607235876843333  1.0000
  H   H5        1.0  0.8997819311916828  0.5348940601106733  0.07962042093276978  1.0000
  H   H6        1.0  0.8861172813922167  0.5072745606303215  0.7048610262572765  1.0000
  H   H7        1.0  0.5614067669957876  0.0267416313290596  0.6488927640020847  1.0000
  H   H8        1.0  0.652050819247961  0.3838898460380733  0.6186899170279503  1.0000
  H   H9        1.0  0.35464500449597836  0.1641424186527729  0.418410605750978  1.0000
  H   H10       1.0  0.45076070353388786  0.819308377802372  0.08420747891068459  1.0000
  C   C1        1.0  0.8413311075419188  0.09957981947809458  0.3203789293766022  1.0000
  C   C2        1.0  0.7274421313777566  0.3162912679836154  0.06448318436741829  1.0000
  O   O1        1.0  0.5806633313186467  0.6865955330431461  0.25232623517513275  1.0000
  O   O2        1.0  0.8552822382189333  0.8492676918394864  0.6707148740242701  1.0000
  O   O3        1.0  0.024696209467947483  0.9732463819673285  0.5915164574980736  1.0000
  O   O4        1.0  0.2918177810497582  0.6321862081531435  0.8502229452133179  1.0000
  O   O5        1.0  0.876429178431863  0.22000610847317148  0.6425268809543923  1.0000
  O   O6        1.0  0.1994112958200276  0.6112068279180676  0.7479360818397254  1.0000
  O   O7        1.0  0.22393473144620657  0.9423076286911964  0.21186898986343294  1.0000
  O   O8        1.0  0.02064060838893056  0.5113420682464493  0.8467774570453912  1.0000
  O   O9        1.0  0.8917893166653812  0.09276756481267512  0.6784392250701785  1.0000
  O   O10       1.0  0.9190927317249589  0.05581722140777856  0.9683934156200849  1.0000
  O   O11       1.0  0.3557899792212993  0.1022763365181163  0.5887058002408594  1.0000
  O   O12       1.0  0.37420302361715585  0.6281884931959212  0.48106786981225014  1.0000
  O   O13       1.0  0.8746089795604348  0.9596359608694911  0.7277168352156878  1.0000
  O   O14       1.0  0.8653083345852792  0.7525697329547256  0.16541026206687093  1.0000
data_image164
_chemical_formula_structural       Pr2P2H10C2O14
_chemical_formula_sum              "Pr2 P2 H10 C2 O14"
_cell_length_a       6.761788999999999
_cell_length_b       7.146483751908908
_cell_length_c       7.843598011864962
_cell_angle_alpha    110.54253585495134
_cell_angle_beta     95.79501476046597
_cell_angle_gamma    89.49575901902455

_space_group_name_H-M_alt    "P 1"
_space_group_IT_number       1

loop_
  _space_group_symop_operation_xyz
  'x, y, z'

loop_
  _atom_site_type_symbol
  _atom_site_label
  _atom_site_symmetry_multiplicity
  _atom_site_fract_x
  _atom_site_fract_y
  _atom_site_fract_z
  _atom_site_occupancy
  Pr  Pr1       1.0  0.8885100837796926  0.776074206456542  0.1671027597039938  1.0000
  Pr  Pr2       1.0  0.30490712507162243  0.7957433424890041  5.42961061000824e-06  1.0000
  P   P1        1.0  0.5105651617050171  0.45845840871334076  0.3391793891787529  1.0000
  P   P2        1.0  0.7548289149999619  0.5502413809299469  0.013105206191539764  1.0000
  H   H1        1.0  0.2824590317904949  0.0950544299557805  0.9731630751630291  1.0000
  H   H2        1.0  0.3066384019330144  0.13999810814857483  0.2597755827009678  1.0000
  H   H3        1.0  0.46188681945204735  0.047956522554159164  0.4017333462834358  1.0000
  H   H4        1.0  0.24597645550966263  0.7034812775091268  0.02036467508878559  1.0000
  H   H5        1.0  0.6349503514356911  0.8195784850977361  0.06367459893226624  1.0000
  H   H6        1.0  0.4182357117533684  0.2862246837466955  0.5871453927829862  1.0000
  H   H7        1.0  0.07616479322314262  0.368361989967525  0.671999953687191  1.0000
  H   H8        1.0  0.8716413974761963  0.3497926495037973  0.4186065662652254  1.0000
  H   H9        1.0  0.43238223530352116  0.4766147267073393  0.24330792389810085  1.0000
  H   H10       1.0  0.00802418403327465  0.690221831202507  0.5164398811757565  1.0000
  C   C1        1.0  0.4071109490469098  0.9923900021240115  0.798872422426939  1.0000
  C   C2        1.0  0.10651844972744584  0.5021600797772408  0.5245057521387935  1.0000
  O   O1        1.0  0.8553447346203029  0.983473489060998  0.20331291481852531  1.0000
  O   O2        1.0  0.8055612808093429  0.4410547437146306  0.42205413430929184  1.0000
  O   O3        1.0  0.18060406111180782  0.7170104840770364  0.5298617519438267  1.0000
  O   O4        1.0  0.5364644951187074  0.10187778132967651  0.7043250207789242  1.0000
  O   O5        1.0  0.06559561879839748  0.5293764295056462  0.4000991494394839  1.0000
  O   O6        1.0  0.7626817087875679  0.8027504321653396  0.041065863872063346  1.0000
  O   O7        1.0  0.835035908035934  0.9561516009271145  0.3280716217996087  1.0000
  O   O8        1.0  0.7042778867762536  0.9217141062690644  0.39493856247281656  1.0000
  O   O9        1.0  0.7755589480511844  0.5993406785419211  0.40791495237499475  1.0000
  O   O10       1.0  0.9286981008481234  0.18897105485666543  0.17820214352104813  1.0000
  O   O11       1.0  0.5231556526850909  0.5482496077893302  0.9269807375967503  1.0000
  O   O12       1.0  0.23142811527941376  0.08869983721524477  0.869231068296358  1.0000
  O   O13       1.0  0.5199844278395176  0.5045395260676742  0.7199387471191585  1.0000
  O   O14       1.0  0.6199195100925863  0.18785323505289853  0.8139059469103813  1.0000
data_image165
_chemical_formula_structural       Pr2P2H10C2O14
_chemical_formula_sum              "Pr2 P2 H10 C2 O14"
_cell_length_a       6.761788999999999
_cell_length_b       7.146483751908908
_cell_length_c       7.843598011864962
_cell_angle_alpha    110.54253585495134
_cell_angle_beta     95.79501476046597
_cell_angle_gamma    89.49575901902455

_space_group_name_H-M_alt    "P 1"
_space_group_IT_number       1

loop_
  _space_group_symop_operation_xyz
  'x, y, z'

loop_
  _atom_site_type_symbol
  _atom_site_label
  _atom_site_symmetry_multiplicity
  _atom_site_fract_x
  _atom_site_fract_y
  _atom_site_fract_z
  _atom_site_occupancy
  Pr  Pr1       1.0  0.38718513771891594  0.2245057187974453  0.26849755458533764  1.0000
  Pr  Pr2       1.0  0.25642826594412327  0.7778029851615429  0.09714632295072079  1.0000
  P   P1        1.0  0.44621342420578003  0.081455297768116  0.8471174761652946  1.0000
  P   P2        1.0  0.3879750967025757  0.28278546035289764  0.1838895082473755  1.0000
  H   H1        1.0  0.38964533619582653  0.45356111880391836  0.29770742100663483  1.0000
  H   H2        1.0  0.15659886971116066  0.30330879613757133  0.6497662216424942  1.0000
  H   H3        1.0  0.5305891148746014  0.818695206195116  0.8943133875727654  1.0000
  H   H4        1.0  0.08444616384804249  0.3516558837145567  0.11692548368591815  1.0000
  H   H5        1.0  0.7408591383136809  0.677872245432809  0.9617430120706558  1.0000
  H   H6        1.0  0.4175373800098896  0.6630490608513355  0.9808511701412499  1.0000
  H   H7        1.0  0.8527099061757326  0.7142236419022083  0.5430385768413544  1.0000
  H   H8        1.0  0.1091928593814373  0.7099568343255669  0.8358447186183184  1.0000
  H   H9        1.0  0.7869583833962679  0.8678548280149698  0.6447937767952681  1.0000
  H   H10       1.0  0.7882402054965496  0.10443390905857086  0.8642056696116924  1.0000
  C   C1        1.0  0.334619976580143  0.7459042109549046  0.9627797305583954  1.0000
  C   C2        1.0  0.2891232115216553  0.026716270484030247  0.14683288428932428  1.0000
  O   O1        1.0  0.9671637322753668  0.8746931627392769  0.14501942694187164  1.0000
  O   O2        1.0  0.16642209608107805  0.9288737985771149  0.7337143328913953  1.0000
  O   O3        1.0  0.11712262919172645  0.37049035739619285  0.9051215723156929  1.0000
  O   O4        1.0  0.2100817053578794  0.21608685259707272  0.3876378301065415  1.0000
  O   O5        1.0  0.4812780286592897  0.4282960425771307  0.7997767938068137  1.0000
  O   O6        1.0  0.8971375664696097  0.41518090246245265  0.5366926032584161  1.0000
  O   O7        1.0  0.06560991983860731  0.9355452628806233  0.8681506993307266  1.0000
  O   O8        1.0  0.9345070307608694  0.09184071952768136  0.8867639556992799  1.0000
  O   O9        1.0  0.7446780907921493  0.20492662047035992  0.7324338406324387  1.0000
  O   O10       1.0  0.6262109903618693  0.7258796223904938  0.3050352485734038  1.0000
  O   O11       1.0  0.8396551995538175  0.10917276190593839  0.095962293446064  1.0000
  O   O12       1.0  0.6575752718490548  0.4407572662457824  0.45933420094661415  1.0000
  O   O13       1.0  0.7392002195119858  0.6605128198862076  0.344292548019439  1.0000
  O   O14       1.0  0.7224347828887403  0.8259456481318921  0.298015876673162  1.0000
data_image166
_chemical_formula_structural       Pr2P2H10C2O14
_chemical_formula_sum              "Pr2 P2 H10 C2 O14"
_cell_length_a       6.761788999999999
_cell_length_b       7.146483751908908
_cell_length_c       7.843598011864962
_cell_angle_alpha    110.54253585495134
_cell_angle_beta     95.79501476046597
_cell_angle_gamma    89.49575901902455

_space_group_name_H-M_alt    "P 1"
_space_group_IT_number       1

loop_
  _space_group_symop_operation_xyz
  'x, y, z'

loop_
  _atom_site_type_symbol
  _atom_site_label
  _atom_site_symmetry_multiplicity
  _atom_site_fract_x
  _atom_site_fract_y
  _atom_site_fract_z
  _atom_site_occupancy
  Pr  Pr1       1.0  0.12854803167283535  0.8175613339990377  0.3061620071530342  1.0000
  Pr  Pr2       1.0  0.6717668230412528  0.2695770710706711  0.6519211139529943  1.0000
  P   P1        1.0  0.723549872636795  0.08982850983738899  0.34734921157360077  1.0000
  P   P2        1.0  0.09285911917686462  0.9019165933132172  0.9572900794446468  1.0000
  H   H1        1.0  0.40013387240469456  0.910189488902688  0.5786698416341096  1.0000
  H   H2        1.0  0.5429857484996319  0.20125646330416203  0.14495086669921875  1.0000
  H   H3        1.0  0.19613667763769627  0.7885616607964039  0.10439012199640274  1.0000
  H   H4        1.0  0.370453791692853  0.20729494059924036  0.8600506429793313  1.0000
  H   H5        1.0  0.6179992943070829  0.8100868132896721  0.6745475232601166  1.0000
  H   H6        1.0  0.24713694490492344  0.7409941013902426  0.008131548296660185  1.0000
  H   H7        1.0  0.1453640820691362  0.11574317142367363  0.42028650268912315  1.0000
  H   H8        1.0  0.9923935644328594  0.027120411163195968  0.4899229849688709  1.0000
  H   H9        1.0  0.4378329995088279  0.7995165791362524  0.7640207083895802  1.0000
  H   H10       1.0  0.6934232302010059  0.7517207004129887  0.9347520992159843  1.0000
  C   C1        1.0  0.5200363341718912  0.9670602260157466  0.8499262202531099  1.0000
  C   C2        1.0  0.9629636746831238  0.19943736400455236  0.011713217943906784  1.0000
  O   O1        1.0  0.7814113348722458  0.61861876770854  0.42446958273649216  1.0000
  O   O2        1.0  0.20474951015785336  0.229285639943555  0.6247550904226955  1.0000
  O   O3        1.0  0.7172560971230268  0.11474861623719335  0.39536277018487453  1.0000
  O   O4        1.0  0.5933446530252695  0.0017932243645191193  0.8757545226253569  1.0000
  O   O5        1.0  0.4924556441837922  0.5322816569241695  0.32656399183906615  1.0000
  O   O6        1.0  0.24777720880229026  0.37182808807119727  0.6375582808104809  1.0000
  O   O7        1.0  0.006045067682862282  0.07936224713921547  0.6983051216229796  1.0000
  O   O8        1.0  0.7609983258880675  0.44196127344912384  0.008641040069051087  1.0000
  O   O9        1.0  0.6239680387079716  0.5450567755615339  0.3795137908309698  1.0000
  O   O10       1.0  0.6720060365623794  0.49872676946688443  0.32151629455620423  1.0000
  O   O11       1.0  0.34565840056166053  0.1708488562144339  0.25151355075649917  1.0000
  O   O12       1.0  0.7633519176742993  0.6238456922583282  0.5597945684567094  1.0000
  O   O13       1.0  0.04565374739468098  0.7953575309365988  0.043350037187337875  1.0000
  O   O14       1.0  0.7908260517287999  0.5893371528945863  0.9443802795140073  1.0000
data_image167
_chemical_formula_structural       Pr2P2H10C2O14
_chemical_formula_sum              "Pr2 P2 H10 C2 O14"
_cell_length_a       6.761788999999999
_cell_length_b       7.146483751908908
_cell_length_c       7.843598011864962
_cell_angle_alpha    110.54253585495134
_cell_angle_beta     95.79501476046597
_cell_angle_gamma    89.49575901902455

_space_group_name_H-M_alt    "P 1"
_space_group_IT_number       1

loop_
  _space_group_symop_operation_xyz
  'x, y, z'

loop_
  _atom_site_type_symbol
  _atom_site_label
  _atom_site_symmetry_multiplicity
  _atom_site_fract_x
  _atom_site_fract_y
  _atom_site_fract_z
  _atom_site_occupancy
  Pr  Pr1       1.0  0.7758201295509934  0.3874344229698181  0.5882490836083889  1.0000
  Pr  Pr2       1.0  0.7611053884029388  0.6849447330459952  0.46914272010326385  1.0000
  P   P1        1.0  0.9734756648540497  0.3951645530760288  0.8107904866337776  1.0000
  P   P2        1.0  0.3003486096858978  0.2310389243066311  0.8479418456554413  1.0000
  H   H1        1.0  0.030033137649297714  0.30748683400452137  0.20848370250314474  1.0000
  H   H2        1.0  0.4035974219441414  0.23122094850987196  0.11121653579175472  1.0000
  H   H3        1.0  0.738595730625093  0.8188177831470966  0.7663562707602978  1.0000
  H   H4        1.0  0.817540418356657  0.14409387717023492  0.20497240126132965  1.0000
  H   H5        1.0  0.09807726042345166  0.8591137444600463  0.4162531867623329  1.0000
  H   H6        1.0  0.9137624893337488  0.7818681858479977  0.7564003090374172  1.0000
  H   H7        1.0  0.580643490771763  0.7840629331767559  0.6141694225370884  1.0000
  H   H8        1.0  0.23972854390740395  0.17521463695447892  0.8669247678481042  1.0000
  H   H9        1.0  0.048222800716757774  0.4785474129021168  0.5766233478207141  1.0000
  H   H10       1.0  0.29551115445792675  0.1537608802318573  0.33936404064297676  1.0000
  C   C1        1.0  0.9257989479228854  0.005670112557709217  0.6895707976073027  1.0000
  C   C2        1.0  0.09271220490336418  0.9820589544251561  0.47877504862844944  1.0000
  O   O1        1.0  0.9374387883581221  0.8083072584122419  0.21107211709022522  1.0000
  O   O2        1.0  0.3119878526777029  0.7241067052818835  0.8542076253797859  1.0000
  O   O3        1.0  0.6579962214455009  0.8862289557000622  0.8761970922350883  1.0000
  O   O4        1.0  0.5779363140463829  0.35483831935562193  0.06703759985975921  1.0000
  O   O5        1.0  0.6003740465966985  0.39981683617224917  0.3402884209062904  1.0000
  O   O6        1.0  0.550307662691921  0.3828624621964991  0.8767909281887114  1.0000
  O   O7        1.0  0.4109065346419811  0.3196182777173817  0.1554518372286111  1.0000
  O   O8        1.0  0.16382443998008966  0.060618150513619184  0.811594308273925  1.0000
  O   O9        1.0  0.6824849122203887  0.516431468189694  0.3437393456697464  1.0000
  O   O10       1.0  0.02388066190178506  0.7706808038055897  0.340797703654971  1.0000
  O   O11       1.0  0.20574019523337483  0.7432959344587289  0.6961733675561845  1.0000
  O   O12       1.0  0.2758688343456015  0.7832488205749542  0.23626331705600023  1.0000
  O   O13       1.0  0.30450704228132963  0.42918273713439703  0.9559331247583032  1.0000
  O   O14       1.0  0.7885078333783895  0.565488369204104  0.3374383356422186  1.0000
data_image168
_chemical_formula_structural       Pr2P2H10C2O14
_chemical_formula_sum              "Pr2 P2 H10 C2 O14"
_cell_length_a       6.761788999999999
_cell_length_b       7.146483751908908
_cell_length_c       7.843598011864962
_cell_angle_alpha    110.54253585495134
_cell_angle_beta     95.79501476046597
_cell_angle_gamma    89.49575901902455

_space_group_name_H-M_alt    "P 1"
_space_group_IT_number       1

loop_
  _space_group_symop_operation_xyz
  'x, y, z'

loop_
  _atom_site_type_symbol
  _atom_site_label
  _atom_site_symmetry_multiplicity
  _atom_site_fract_x
  _atom_site_fract_y
  _atom_site_fract_z
  _atom_site_occupancy
  Pr  Pr1       1.0  0.11912449263036251  0.12419798318296671  0.24634403176605701  1.0000
  Pr  Pr2       1.0  0.095887940376997  0.6478028711862862  0.4748388007283211  1.0000
  P   P1        1.0  0.4375521242618561  0.5866374708712101  0.10546845197677612  1.0000
  P   P2        1.0  0.6053481921553612  0.6851349417120218  0.1018672063946724  1.0000
  H   H1        1.0  0.8308918690308928  0.3668042104691267  0.6901038135401905  1.0000
  H   H2        1.0  0.5192960798740387  0.8172148196026683  0.7445911187678576  1.0000
  H   H3        1.0  0.12079751398414373  0.4319639503955841  0.6905091367661953  1.0000
  H   H4        1.0  0.07993620168417692  0.38912866706959903  0.3223945542704314  1.0000
  H   H5        1.0  0.422772987280041  0.6485020089894533  0.3500958979129791  1.0000
  H   H6        1.0  0.47804062627255917  0.6422599498182535  0.15293250232934952  1.0000
  H   H7        1.0  0.20834951987490058  0.9037070423364639  0.062218885868787766  1.0000
  H   H8        1.0  0.9321990832686424  0.2643199923913926  0.5582813760265708  1.0000
  H   H9        1.0  0.5829720534384251  0.8984530423767865  0.1392980758100748  1.0000
  H   H10       1.0  0.6692794989794493  0.05377023294568062  0.031289178878068924  1.0000
  C   C1        1.0  0.6181443966925144  0.7139107808470726  0.42314379662275314  1.0000
  C   C2        1.0  0.9793307916261256  0.4624852919951081  0.24645430967211723  1.0000
  O   O1        1.0  0.7200341895222664  0.6769872549921274  0.3119420036673546  1.0000
  O   O2        1.0  0.5432556862942874  0.194337107706815  0.5902642458677292  1.0000
  O   O3        1.0  0.9558562207967043  0.46475400251802057  0.8932151701301336  1.0000
  O   O4        1.0  0.09241451509296894  0.7533145400229841  0.2975482721813023  1.0000
  O   O5        1.0  0.304332755622454  0.5646552432444878  0.8748767864017282  1.0000
  O   O6        1.0  0.15908569004386663  0.059673095587641  0.8527357773855329  1.0000
  O   O7        1.0  0.27453592978417873  0.2468647756613791  0.07585766678676009  1.0000
  O   O8        1.0  0.254540903493762  0.40082658489700407  0.2900083801068831  1.0000
  O   O9        1.0  0.817765052895993  0.203795951558277  0.04258518200367689  1.0000
  O   O10       1.0  0.5119419987895526  0.07836906181182712  0.5557682286307681  1.0000
  O   O11       1.0  0.7819968482945114  0.25871536874910817  0.9429540459532291  1.0000
  O   O12       1.0  0.1564778434112668  0.4065803181147203  0.9023790003266186  1.0000
  O   O13       1.0  0.7029899228364229  0.5909600667655468  0.27323895040899515  1.0000
  O   O14       1.0  0.884939479874447  0.8231117795221508  0.4578968654386699  1.0000
data_image169
_chemical_formula_structural       Pr2P2H10C2O14
_chemical_formula_sum              "Pr2 P2 H10 C2 O14"
_cell_length_a       6.761788999999999
_cell_length_b       7.146483751908908
_cell_length_c       7.843598011864962
_cell_angle_alpha    110.54253585495134
_cell_angle_beta     95.79501476046597
_cell_angle_gamma    89.49575901902455

_space_group_name_H-M_alt    "P 1"
_space_group_IT_number       1

loop_
  _space_group_symop_operation_xyz
  'x, y, z'

loop_
  _atom_site_type_symbol
  _atom_site_label
  _atom_site_symmetry_multiplicity
  _atom_site_fract_x
  _atom_site_fract_y
  _atom_site_fract_z
  _atom_site_occupancy
  Pr  Pr1       1.0  0.792390551418066  0.9655897542834282  0.8690925389528275  1.0000
  Pr  Pr2       1.0  0.9784123040735722  0.11673460155725479  0.4619447123259306  1.0000
  P   P1        1.0  0.24317920207977295  0.4860853813588619  0.9452274516224861  1.0000
  P   P2        1.0  0.15318205207586288  0.6477017849683762  0.1596601977944374  1.0000
  H   H1        1.0  0.7968609938398004  0.9189928863197565  0.1819151269737631  1.0000
  H   H2        1.0  0.46693389397114515  0.11950971791520715  0.47835527546703815  1.0000
  H   H3        1.0  0.8507273988798261  0.6774518862366676  0.3373182527720928  1.0000
  H   H4        1.0  0.2646664623171091  0.8065438340418041  0.49810297857038677  1.0000
  H   H5        1.0  0.14774643070995808  0.6306393835693598  0.4604276791214943  1.0000
  H   H6        1.0  0.06716137379407883  0.18047698214650154  8.77496786415577e-05  1.0000
  H   H7        1.0  0.02801245474256575  0.9866189630702138  0.24477365985512733  1.0000
  H   H8        1.0  0.6339129395782948  0.4720286875963211  0.89955601003021  1.0000
  H   H9        1.0  0.53946677967906  0.1516684372909367  0.09838764369487762  1.0000
  H   H10       1.0  0.12356004677712917  0.5703692995011806  0.865692000836134  1.0000
  C   C1        1.0  0.6655510356649756  0.7061590710654855  0.013854240998625755  1.0000
  C   C2        1.0  0.0015994083369150758  0.5451975278556347  0.09432876575738192  1.0000
  O   O1        1.0  0.6564812420401722  0.5815959945321083  0.9020000137388706  1.0000
  O   O2        1.0  0.38628460792824626  0.4570261398330331  0.33453203784301877  1.0000
  O   O3        1.0  0.3968657893128693  0.9607747085392475  0.02736262045800686  1.0000
  O   O4        1.0  0.4294145335443318  0.2944672105368227  0.4251184491440654  1.0000
  O   O5        1.0  0.37320225103758276  0.6064334252732806  0.3434688606794225  1.0000
  O   O6        1.0  0.7617081217467785  0.2522170781157911  0.7832799283787608  1.0000
  O   O7        1.0  0.9981347359716892  0.8916784911416471  0.15584598644636571  1.0000
  O   O8        1.0  0.36204555444419384  0.9041317198425531  0.24891407770337537  1.0000
  O   O9        1.0  0.45474403630942106  0.29065869213081896  0.9721111776307225  1.0000
  O   O10       1.0  0.7893430983531289  0.1176837858511135  0.21903671688050963  1.0000
  O   O11       1.0  0.7150787631981075  0.9477181346155703  0.2183355838060379  1.0000
  O   O12       1.0  0.613126092706807  0.732698381296359  0.8202515635639429  1.0000
  O   O13       1.0  0.4931620443239808  0.8140928279608488  0.6646598698571324  1.0000
  O   O14       1.0  0.32936955778859556  0.5299170766957104  0.9066916146548465  1.0000
data_image170
_chemical_formula_structural       Pr2P2H10C2O14
_chemical_formula_sum              "Pr2 P2 H10 C2 O14"
_cell_length_a       6.761788999999999
_cell_length_b       7.146483751908908
_cell_length_c       7.843598011864962
_cell_angle_alpha    110.54253585495134
_cell_angle_beta     95.79501476046597
_cell_angle_gamma    89.49575901902455

_space_group_name_H-M_alt    "P 1"
_space_group_IT_number       1

loop_
  _space_group_symop_operation_xyz
  'x, y, z'

loop_
  _atom_site_type_symbol
  _atom_site_label
  _atom_site_symmetry_multiplicity
  _atom_site_fract_x
  _atom_site_fract_y
  _atom_site_fract_z
  _atom_site_occupancy
  Pr  Pr1       1.0  0.13653986528515816  0.7842116565443575  0.7396625969558954  1.0000
  Pr  Pr2       1.0  0.1278083510696888  0.8510506013408303  0.3691709917038679  1.0000
  P   P1        1.0  0.5441292524337769  0.7312957867980003  0.20512636005878448  1.0000
  P   P2        1.0  0.9886246547102928  0.7374347895383835  0.8314691744744778  1.0000
  H   H1        1.0  0.7493582349270582  0.31720446795225143  0.6094606155529618  1.0000
  H   H2        1.0  0.44526389986276627  0.782711063278839  0.49930039793252945  1.0000
  H   H3        1.0  0.7392934989184141  0.8818929996341467  0.872419785708189  1.0000
  H   H4        1.0  0.8720917096361518  0.017060687416233122  0.9082734724506736  1.0000
  H   H5        1.0  0.020738589577376842  0.9885737430304289  0.14536194503307343  1.0000
  H   H6        1.0  0.8909098729491234  0.12854580581188202  0.531244620680809  1.0000
  H   H7        1.0  0.33465862134471536  0.257925420999527  0.6476697660982609  1.0000
  H   H8        1.0  0.13573459908366203  0.49362637265585363  0.2486281916499138  1.0000
  H   H9        1.0  0.8941525965929031  0.20384873310104012  0.4957163785584271  1.0000
  H   H10       1.0  0.5375476256012917  0.38559984788298607  0.7376321665942669  1.0000
  C   C1        1.0  0.4082242362201214  0.19279392156749964  0.11027481779456139  1.0000
  C   C2        1.0  0.7247648781631142  0.7569525884464383  0.42916912492364645  1.0000
  O   O1        1.0  0.8109555435366929  0.17036445811390877  0.5173431299626827  1.0000
  O   O2        1.0  0.5882537874858826  0.02700135251507163  0.7431162227876484  1.0000
  O   O3        1.0  0.2214439231902361  0.9889849022729322  0.045840078964829445  1.0000
  O   O4        1.0  0.9750439147464931  0.23107434809207916  0.802389023359865  1.0000
  O   O5        1.0  0.9982939721085131  0.7452594651840627  0.11630253748444375  1.0000
  O   O6        1.0  0.582578057423234  0.12622025050222874  0.24986551608890295  1.0000
  O   O7        1.0  0.6713281441479921  0.45512346737086773  0.26786803966388106  1.0000
  O   O8        1.0  0.9180360324680805  0.15539419930428267  0.08467796188779175  1.0000
  O   O9        1.0  0.8321992917917669  0.9459616157691926  0.9577988842502236  1.0000
  O   O10       1.0  0.26822374446783215  0.149718975299038  0.7493322520385846  1.0000
  O   O11       1.0  0.8430769415572286  0.8798664720961824  0.6723522206302732  1.0000
  O   O12       1.0  0.5187899857992306  0.19539503648411483  0.9108344924170524  1.0000
  O   O13       1.0  0.3203048827126622  0.1616650829091668  0.29182684142142534  1.0000
  O   O14       1.0  0.04907254921272397  0.8788777571171522  0.5644576877821237  1.0000
data_image171
_chemical_formula_structural       Pr2P2H10C2O14
_chemical_formula_sum              "Pr2 P2 H10 C2 O14"
_cell_length_a       6.761788999999999
_cell_length_b       7.146483751908908
_cell_length_c       7.843598011864962
_cell_angle_alpha    110.54253585495134
_cell_angle_beta     95.79501476046597
_cell_angle_gamma    89.49575901902455

_space_group_name_H-M_alt    "P 1"
_space_group_IT_number       1

loop_
  _space_group_symop_operation_xyz
  'x, y, z'

loop_
  _atom_site_type_symbol
  _atom_site_label
  _atom_site_symmetry_multiplicity
  _atom_site_fract_x
  _atom_site_fract_y
  _atom_site_fract_z
  _atom_site_occupancy
  Pr  Pr1       1.0  0.1727998023852706  0.24039831198751926  0.6347434911876917  1.0000
  Pr  Pr2       1.0  0.8391361832618713  0.16145696211606264  0.3412837339565158  1.0000
  P   P1        1.0  0.23253995180130005  0.4976436123251915  0.9088893756270409  1.0000
  P   P2        1.0  0.15533871948719025  0.2606419436633587  0.09426845610141754  1.0000
  H   H1        1.0  0.7732271980494261  0.9042199291288853  0.02210941887460649  1.0000
  H   H2        1.0  0.576287480071187  0.6823666903655976  0.8403206747025251  1.0000
  H   H3        1.0  0.463498430326581  0.6342500746250153  0.7308237813413143  1.0000
  H   H4        1.0  0.24729218520224094  0.021966529777273536  0.23845927137881517  1.0000
  H   H5        1.0  0.5004445230588317  0.34794426523149014  0.011736385524272919  1.0000
  H   H6        1.0  0.2386296670883894  0.7235408453270793  0.6031590602360666  1.0000
  H   H7        1.0  0.06449116696603596  0.8335965583100915  0.688948318362236  1.0000
  H   H8        1.0  0.9437472000718117  0.9133609509444796  0.02824633987620473  1.0000
  H   H9        1.0  0.4246797226369381  0.9101814003661275  0.38628647942095995  1.0000
  H   H10       1.0  0.34358602948486805  0.2476002797484398  0.7354590110480785  1.0000
  C   C1        1.0  0.730459121055901  0.984960968606174  0.008383439853787422  1.0000
  C   C2        1.0  0.2847377137513831  0.845979199744761  0.9637595489621162  1.0000
  O   O1        1.0  0.263625270454213  0.5661381613463163  0.4966738596558571  1.0000
  O   O2        1.0  0.4102504984475672  0.89965974772349  0.515702348202467  1.0000
  O   O3        1.0  0.9213529261760414  0.22267106821527705  0.5232777241617441  1.0000
  O   O4        1.0  0.7800346533767879  0.07832871610298753  0.9770047357305884  1.0000
  O   O5        1.0  0.7286008143564686  0.7748935690615326  0.32718398643191904  1.0000
  O   O6        1.0  0.5741742663085461  0.8890922646969557  0.836121148429811  1.0000
  O   O7        1.0  0.8374334871768951  0.6616889033466578  0.19479955174028873  1.0000
  O   O8        1.0  0.4814763693138957  0.4712613499723375  0.5551243752706796  1.0000
  O   O9        1.0  0.9330433718860149  0.23474011290818453  0.7756885569542646  1.0000
  O   O10       1.0  0.533668726682663  0.6821707189083099  0.35515628720168024  1.0000
  O   O11       1.0  0.6679016165435314  0.9310926752514206  0.6757720659952611  1.0000
  O   O12       1.0  0.23675179725978523  0.4439472156809643  0.07974048820324242  1.0000
  O   O13       1.0  0.03075587283819914  0.5062922928482294  0.4434402151964605  1.0000
  O   O14       1.0  0.4467343098949641  0.12255749618634582  0.7552392107900232  1.0000
data_image172
_chemical_formula_structural       Pr2P2H10C2O14
_chemical_formula_sum              "Pr2 P2 H10 C2 O14"
_cell_length_a       6.761788999999999
_cell_length_b       7.146483751908908
_cell_length_c       7.843598011864962
_cell_angle_alpha    110.54253585495134
_cell_angle_beta     95.79501476046597
_cell_angle_gamma    89.49575901902455

_space_group_name_H-M_alt    "P 1"
_space_group_IT_number       1

loop_
  _space_group_symop_operation_xyz
  'x, y, z'

loop_
  _atom_site_type_symbol
  _atom_site_label
  _atom_site_symmetry_multiplicity
  _atom_site_fract_x
  _atom_site_fract_y
  _atom_site_fract_z
  _atom_site_occupancy
  Pr  Pr1       1.0  0.5812307680025697  0.7953584305942059  0.11134513467550278  1.0000
  Pr  Pr2       1.0  0.13265801966190338  0.06889597699046135  0.09947809111326933  1.0000
  P   P1        1.0  0.9704877734184265  0.7095588371157646  0.5544641464948654  1.0000
  P   P2        1.0  0.632378064095974  0.01592184230685234  0.9799740836024284  1.0000
  H   H1        1.0  0.8956158692017198  0.6227930467575788  0.4062054215464741  1.0000
  H   H2        1.0  0.7767825582996011  0.2209447519853711  0.6443329732865095  1.0000
  H   H3        1.0  0.5694831851869822  0.6589095313102007  0.24208669736981392  1.0000
  H   H4        1.0  0.8085776576772332  0.4703226275742054  0.30274492618627846  1.0000
  H   H5        1.0  0.4131982568651438  0.07446063868701458  0.9672048017382622  1.0000
  H   H6        1.0  0.9590221140533686  0.7703199312090874  0.7898932616226375  1.0000
  H   H7        1.0  0.5170482932589948  0.5392054049298167  0.2983451187610626  1.0000
  H   H8        1.0  0.5657675266265869  0.45667838625377044  0.3100968888029456  1.0000
  H   H9        1.0  0.8447568491101265  0.6439134860411286  0.9584180791862309  1.0000
  H   H10       1.0  0.11957641318440437  0.9262720830738544  0.01700933277606964  1.0000
  C   C1        1.0  0.8483222825452685  0.11344100069254637  0.5267864614725113  1.0000
  C   C2        1.0  0.5963975510094315  0.3967771288007498  0.4862977312877774  1.0000
  O   O1        1.0  0.3639683385845274  0.3633958660066128  0.3101215995848179  1.0000
  O   O2        1.0  0.10727475420571864  0.2671110206283629  0.7009498332627118  1.0000
  O   O3        1.0  0.2036009281873703  0.22638367948820814  0.03148934431374073  1.0000
  O   O4        1.0  0.11501673771999776  0.1569162574596703  0.42401722772046924  1.0000
  O   O5        1.0  0.32431983365677297  0.21869119349867105  0.98058564166422  1.0000
  O   O6        1.0  0.5377233680337667  0.5981164737604558  0.653426949866116  1.0000
  O   O7        1.0  0.868295930325985  0.40524311549961567  0.6486754103098065  1.0000
  O   O8        1.0  0.3825678937137127  0.012976545142009854  0.6371520576067269  1.0000
  O   O9        1.0  0.003689770121127367  0.8933177479775622  0.9257184015586972  1.0000
  O   O10       1.0  0.5061897461710032  0.04775868868455291  0.0098673303364194  1.0000
  O   O11       1.0  0.41381855425424874  0.11036905349465087  0.9368037942331284  1.0000
  O   O12       1.0  0.4252020438434556  0.6396058991085738  0.6762807690538466  1.0000
  O   O13       1.0  0.784678190946579  0.7748483652248979  0.7629535687156022  1.0000
  O   O14       1.0  0.5166010872926563  0.7497396010439843  0.2244951429311186  1.0000
data_image173
_chemical_formula_structural       Pr2P2H10C2O14
_chemical_formula_sum              "Pr2 P2 H10 C2 O14"
_cell_length_a       6.761788999999999
_cell_length_b       7.146483751908908
_cell_length_c       7.843598011864962
_cell_angle_alpha    110.54253585495134
_cell_angle_beta     95.79501476046597
_cell_angle_gamma    89.49575901902455

_space_group_name_H-M_alt    "P 1"
_space_group_IT_number       1

loop_
  _space_group_symop_operation_xyz
  'x, y, z'

loop_
  _atom_site_type_symbol
  _atom_site_label
  _atom_site_symmetry_multiplicity
  _atom_site_fract_x
  _atom_site_fract_y
  _atom_site_fract_z
  _atom_site_occupancy
  Pr  Pr1       1.0  0.9401805466040969  0.8559442884288728  0.11016177386045456  1.0000
  Pr  Pr2       1.0  0.5951200239360332  0.3082250040024519  0.7721764221787453  1.0000
  P   P1        1.0  0.39006784558296204  0.27804529294371605  0.3545534685254097  1.0000
  P   P2        1.0  0.489461325109005  0.4678756855428219  0.48536693677306175  1.0000
  H   H1        1.0  0.5475170835852623  0.7190115880221128  0.22358519630506635  1.0000
  H   H2        1.0  0.23926765099167824  0.6426563099958003  0.7920386474579573  1.0000
  H   H3        1.0  0.5706126792356372  0.040285566821694374  0.8289037011563778  1.0000
  H   H4        1.0  0.7601086618378758  0.5270667875884101  0.970099026337266  1.0000
  H   H5        1.0  0.9957432951778173  0.6013571098446846  0.4864550232887268  1.0000
  H   H6        1.0  0.7328329365700483  0.05818835739046335  0.05443335650488734  1.0000
  H   H7        1.0  0.5280245107132941  0.13219072110950947  0.6168826557695866  1.0000
  H   H8        1.0  0.6455950513482094  0.4199333255237434  0.9578225435689092  1.0000
  H   H9        1.0  0.031853917986154556  0.7655342388898134  0.7058329153805971  1.0000
  H   H10       1.0  0.05569010600447655  0.92320317029953  0.9690504670143127  1.0000
  C   C1        1.0  0.3013936895877123  0.0717270253226161  0.04347418248653412  1.0000
  C   C2        1.0  0.43953663675347343  0.6700009424239397  0.06962233921512961  1.0000
  O   O1        1.0  0.3910990336444229  0.9235627632588148  0.029977649450302124  1.0000
  O   O2        1.0  0.31856610905379057  0.7843644223175943  0.3389931144192815  1.0000
  O   O3        1.0  0.5917635215446353  0.9004689961438999  0.08708860166370869  1.0000
  O   O4        1.0  0.1452795034274459  0.7757135671563447  0.6652633850462735  1.0000
  O   O5        1.0  0.4202700776513666  0.30179771804250777  0.6638604391046101  1.0000
  O   O6        1.0  0.260761690326035  0.4944401755928993  0.7056156126782298  1.0000
  O   O7        1.0  0.4971741810441017  0.2477475251071155  0.7921674540266395  1.0000
  O   O8        1.0  0.10140518378466368  0.48220896860584617  0.10689310904126614  1.0000
  O   O9        1.0  0.9630587222054601  0.7634287661639974  0.8546624472364783  1.0000
  O   O10       1.0  0.5527879562578164  0.6582251900108531  0.7493638823871152  1.0000
  O   O11       1.0  0.927666267612949  0.5518324811710045  0.2729340731166303  1.0000
  O   O12       1.0  0.36752256739418954  0.4024651877116412  0.7152388484682888  1.0000
  O   O13       1.0  0.5195381604135036  0.9452882166951895  0.7131122150458395  1.0000
  O   O14       1.0  0.7323558630887419  0.4460073022637516  0.3406895960215479  1.0000
data_image174
_chemical_formula_structural       Pr2P2H10C2O14
_chemical_formula_sum              "Pr2 P2 H10 C2 O14"
_cell_length_a       6.761788999999999
_cell_length_b       7.146483751908908
_cell_length_c       7.843598011864962
_cell_angle_alpha    110.54253585495134
_cell_angle_beta     95.79501476046597
_cell_angle_gamma    89.49575901902455

_space_group_name_H-M_alt    "P 1"
_space_group_IT_number       1

loop_
  _space_group_symop_operation_xyz
  'x, y, z'

loop_
  _atom_site_type_symbol
  _atom_site_label
  _atom_site_symmetry_multiplicity
  _atom_site_fract_x
  _atom_site_fract_y
  _atom_site_fract_z
  _atom_site_occupancy
  Pr  Pr1       1.0  0.06336493603885174  0.1711807632818818  0.9931382611393929  1.0000
  Pr  Pr2       1.0  0.9676836431026459  0.17597934417426586  0.4259529374539852  1.0000
  P   P1        1.0  0.3940504789352417  0.7754609063267708  0.706805594265461  1.0000
  P   P2        1.0  0.4770209640264511  0.28494226187467575  0.483751118183136  1.0000
  H   H1        1.0  0.6543466560542583  0.7566884774714708  0.4402918943669647  1.0000
  H   H2        1.0  0.008663753978908062  0.6527538092341274  0.6303062736988068  1.0000
  H   H3        1.0  0.6715884646400809  0.7160975206643343  0.5487503372132778  1.0000
  H   H4        1.0  0.27021246403455734  0.9571578413015231  0.9576929768081754  1.0000
  H   H5        1.0  0.051135919988155365  0.017735473811626434  0.990875855088234  1.0000
  H   H6        1.0  0.0332537516951561  0.653665216639638  0.5388065413571894  1.0000
  H   H7        1.0  0.4760044631548226  0.6577300941571593  0.9455045387148857  1.0000
  H   H8        1.0  0.5212338380515575  0.4726324356161058  0.6837557754479349  1.0000
  H   H9        1.0  0.6845231838524342  0.18073098734021187  0.5269360267557204  1.0000
  H   H10       1.0  0.16110575757920742  0.6040617488324642  0.1440637931227684  1.0000
  C   C1        1.0  0.03553397115319967  0.7126043997704983  0.1297981757670641  1.0000
  C   C2        1.0  0.7966099188197404  0.7871654080227017  0.4349685665220022  1.0000
  O   O1        1.0  0.46660768426954746  0.4473075233399868  0.47828803583979607  1.0000
  O   O2        1.0  0.8587112312670797  0.9326817649416625  0.09756377432495356  1.0000
  O   O3        1.0  0.20770192006602883  0.047805377398617566  0.3419142048805952  1.0000
  O   O4        1.0  0.418875120813027  0.8409751248545945  0.8916768005583435  1.0000
  O   O5        1.0  0.2223096084780991  0.6525480443960987  0.8455732450238429  1.0000
  O   O6        1.0  0.756968667730689  0.4469807022251189  0.5071631353348494  1.0000
  O   O7        1.0  0.6071988791227341  0.8409926858730614  0.18448827206157148  1.0000
  O   O8        1.0  0.17288397252559662  0.7515930978115648  0.546278577297926  1.0000
  O   O9        1.0  0.4849447445012629  0.3860674749594182  0.20865709520876408  1.0000
  O   O10       1.0  0.3577483519620728  0.7173321476439014  0.24139313892374048  1.0000
  O   O11       1.0  0.26577598904259503  0.44213584234239534  0.332460519624874  1.0000
  O   O12       1.0  0.6796024843351915  0.10567648953292519  0.052004759665578604  1.0000
  O   O13       1.0  0.25128982961177826  0.497837514616549  0.014229331631213427  1.0000
  O   O14       1.0  0.023230318445712328  0.37645278591662645  0.5632896177703515  1.0000
data_image175
_chemical_formula_structural       Pr2P2H10C2O14
_chemical_formula_sum              "Pr2 P2 H10 C2 O14"
_cell_length_a       6.761788999999999
_cell_length_b       7.146483751908908
_cell_length_c       7.843598011864962
_cell_angle_alpha    110.54253585495134
_cell_angle_beta     95.79501476046597
_cell_angle_gamma    89.49575901902455

_space_group_name_H-M_alt    "P 1"
_space_group_IT_number       1

loop_
  _space_group_symop_operation_xyz
  'x, y, z'

loop_
  _atom_site_type_symbol
  _atom_site_label
  _atom_site_symmetry_multiplicity
  _atom_site_fract_x
  _atom_site_fract_y
  _atom_site_fract_z
  _atom_site_occupancy
  Pr  Pr1       1.0  0.38991776015609503  0.7745593995787203  0.7980294954031706  1.0000
  Pr  Pr2       1.0  0.9886140897870064  0.6084974762052298  0.29292375035583973  1.0000
  P   P1        1.0  0.6417078077793121  0.5218877010047436  0.6872240602970123  1.0000
  P   P2        1.0  0.45579831302165985  0.6463808380067348  0.9214093685150146  1.0000
  H   H1        1.0  0.5966854672878981  0.2806117609143257  0.3743172406684607  1.0000
  H   H2        1.0  0.7809496158733964  0.4163825404830277  0.7122367564588785  1.0000
  H   H3        1.0  0.032561144791543484  0.8137657344341278  0.42251692712306976  1.0000
  H   H4        1.0  0.8302784515544772  0.32607910910155624  0.6795098015572876  1.0000
  H   H5        1.0  0.9299654485657811  0.771490354090929  0.9150011539459229  1.0000
  H   H6        1.0  0.16812101379036903  0.1610604291781783  0.308580681681633  1.0000
  H   H7        1.0  0.44794740178622305  0.16295848414301872  0.404025174677372  1.0000
  H   H8        1.0  0.8234782218933105  0.6463212751841638  0.8933195918798447  1.0000
  H   H9        1.0  0.6981977969408035  0.014005489647388458  0.38785753306001425  1.0000
  H   H10       1.0  0.8411708101630211  0.3172619082033634  0.11109546944499016  1.0000
  C   C1        1.0  0.3859694292768836  0.822082337923348  0.39195957966148853  1.0000
  C   C2        1.0  0.4163401025580242  0.5330668864771724  0.6055816048756242  1.0000
  O   O1        1.0  0.36332149361260235  0.2148185893893242  0.4161372780799866  1.0000
  O   O2        1.0  0.8928637010976672  0.2712495280429721  0.45035910373553634  1.0000
  O   O3        1.0  0.7535467892885208  0.8064206018461846  0.042130157351493835  1.0000
  O   O4        1.0  0.9082182354759425  0.34647045750170946  0.27688022842630744  1.0000
  O   O5        1.0  0.3129943076055497  0.13294780533760786  0.3880726163624786  1.0000
  O   O6        1.0  0.6900486750528216  0.5594856631942093  0.1512125190347433  1.0000
  O   O7        1.0  0.7721995748579502  0.34875231608748436  0.6518714895937592  1.0000
  O   O8        1.0  0.3967788992449641  0.2748152227140963  0.48431606899248436  1.0000
  O   O9        1.0  0.2864685505628586  0.312828152324073  0.4279810069128871  1.0000
  O   O10       1.0  0.08804032256011851  0.7809605319052935  0.0760986841560225  1.0000
  O   O11       1.0  0.537192722549662  0.31920538807753474  0.6227829218842089  1.0000
  O   O12       1.0  0.046681838342919946  0.04085089941509068  0.9036006594542414  1.0000
  O   O13       1.0  0.8718434125185013  0.698914147913456  0.5727702262811363  1.0000
  O   O14       1.0  0.14980134437792003  0.06672555208206177  0.15004823310300708  1.0000
data_image176
_chemical_formula_structural       Pr2P2H10C2O14
_chemical_formula_sum              "Pr2 P2 H10 C2 O14"
_cell_length_a       6.761788999999999
_cell_length_b       7.146483751908908
_cell_length_c       7.843598011864962
_cell_angle_alpha    110.54253585495134
_cell_angle_beta     95.79501476046597
_cell_angle_gamma    89.49575901902455

_space_group_name_H-M_alt    "P 1"
_space_group_IT_number       1

loop_
  _space_group_symop_operation_xyz
  'x, y, z'

loop_
  _atom_site_type_symbol
  _atom_site_label
  _atom_site_symmetry_multiplicity
  _atom_site_fract_x
  _atom_site_fract_y
  _atom_site_fract_z
  _atom_site_occupancy
  Pr  Pr1       1.0  0.4529545484110713  0.33538165176287293  0.06921989284455776  1.0000
  Pr  Pr2       1.0  0.9382420852780342  0.7442842591553926  0.3711604932323098  1.0000
  P   P1        1.0  0.2839871346950531  0.8584943488240242  0.2544209510087967  1.0000
  P   P2        1.0  0.2326827347278595  0.9308161102235317  0.01721535623073578  1.0000
  H   H1        1.0  0.5554960053414106  0.0857479702681303  0.19747125077992678  1.0000
  H   H2        1.0  0.9934429107233882  0.939097415888682  0.005178205668926239  1.0000
  H   H3        1.0  0.24420107156038284  0.5549451988190413  0.1963844895362854  1.0000
  H   H4        1.0  0.46857468225061893  0.9276547183981165  0.6905570363160223  1.0000
  H   H5        1.0  0.5027081044390798  0.6963581405580044  0.7329471334815025  1.0000
  H   H6        1.0  0.4842685032635927  0.19546425342559814  0.08015708858147264  1.0000
  H   H7        1.0  0.2748589504044503  0.7745023490861058  0.8075649365782738  1.0000
  H   H8        1.0  0.5059150829911232  0.45182645024033263  0.25416794139891863  1.0000
  H   H9        1.0  0.5183115378022194  0.4210353228263557  0.6588386232033372  1.0000
  H   H10       1.0  0.6027075815945864  0.8280298486351967  0.3508230522274971  1.0000
  C   C1        1.0  0.14294995740056038  0.45628551207482815  0.704040052369237  1.0000
  C   C2        1.0  0.34827396366745234  0.43634539004415274  0.3540787426754832  1.0000
  O   O1        1.0  0.31546192546375096  0.7136198990046978  0.24721386283636093  1.0000
  O   O2        1.0  0.5138454844709486  0.5282511105760932  0.06702299695461988  1.0000
  O   O3        1.0  0.6467838059179485  0.6034764596843161  0.7235926706343889  1.0000
  O   O4        1.0  0.2042003977112472  0.20984586840495467  0.41619674186222255  1.0000
  O   O5        1.0  0.9218391084577888  0.31912918691523373  0.026229055700241588  1.0000
  O   O6        1.0  0.32984968181699514  0.29943042155355215  0.4042957788333297  1.0000
  O   O7        1.0  0.29471970349550247  0.6968638356775045  0.5236747690942138  1.0000
  O   O8        1.0  0.9374596597626805  0.2195159567054361  0.7354555793572217  1.0000
  O   O9        1.0  0.5380972144193947  0.8198521920712665  0.16485122963786125  1.0000
  O   O10       1.0  0.39938674835138954  0.11923081113491207  0.5778770302058547  1.0000
  O   O11       1.0  0.08785625477321446  0.7223055606009439  0.04605922638438642  1.0000
  O   O12       1.0  0.025906387832947075  0.9319945898605511  0.43436753540299833  1.0000
  O   O13       1.0  0.931771207600832  0.36524001974612474  0.7990869372151792  1.0000
  O   O14       1.0  0.5017726474907249  0.18058915250003338  0.20466880151070654  1.0000
data_image177
_chemical_formula_structural       Pr2P2H10C2O14
_chemical_formula_sum              "Pr2 P2 H10 C2 O14"
_cell_length_a       6.761788999999999
_cell_length_b       7.146483751908908
_cell_length_c       7.843598011864962
_cell_angle_alpha    110.54253585495134
_cell_angle_beta     95.79501476046597
_cell_angle_gamma    89.49575901902455

_space_group_name_H-M_alt    "P 1"
_space_group_IT_number       1

loop_
  _space_group_symop_operation_xyz
  'x, y, z'

loop_
  _atom_site_type_symbol
  _atom_site_label
  _atom_site_symmetry_multiplicity
  _atom_site_fract_x
  _atom_site_fract_y
  _atom_site_fract_z
  _atom_site_occupancy
  Pr  Pr1       1.0  0.38619939144700766  0.8356159823015332  0.4199573006480932  1.0000
  Pr  Pr2       1.0  0.5511426106095314  0.013694152235984802  0.3418065132573247  1.0000
  P   P1        1.0  0.3506675064563751  0.31125058233737946  0.07996132224798203  1.0000
  P   P2        1.0  0.2435532659292221  0.3216325379908085  0.049830663949251175  1.0000
  H   H1        1.0  0.18775430228561163  0.31298819556832314  0.8126290447544307  1.0000
  H   H2        1.0  0.6038218941539526  0.15858759777620435  0.05238568224012852  1.0000
  H   H3        1.0  0.9770999737083912  0.033094557002186775  0.8450536169111729  1.0000
  H   H4        1.0  0.682375555858016  0.5255564535036683  0.6517634356860071  1.0000
  H   H5        1.0  0.713643497787416  0.08486035093665123  0.9087539240717888  1.0000
  H   H6        1.0  0.411229332908988  0.9895944455638528  0.25380590558052063  1.0000
  H   H7        1.0  0.16615951713174582  0.44408784806728363  0.8093916140496731  1.0000
  H   H8        1.0  0.2849491983652115  0.7189724398776889  0.5555740380659699  1.0000
  H   H9        1.0  0.32896700128912926  0.11293651582673192  0.5092105958610773  1.0000
  H   H10       1.0  0.44113405235111713  0.03316156566143036  0.21549368277192116  1.0000
  C   C1        1.0  0.18365554884076118  0.37558399979025126  0.8744037132710218  1.0000
  C   C2        1.0  0.24602649663574994  0.7310228496789932  0.08796501345932484  1.0000
  O   O1        1.0  0.39540183544158936  0.8721258901059628  0.8678590543568134  1.0000
  O   O2        1.0  0.15612360462546349  0.8659242391586304  0.3442267095670104  1.0000
  O   O3        1.0  0.45409381994977593  0.09400422999169677  0.4199520871043205  1.0000
  O   O4        1.0  0.6393968276679516  0.9426831409800798  0.4996258718892932  1.0000
  O   O5        1.0  0.4102176168235019  0.16928422532510012  0.12568980334617663  1.0000
  O   O6        1.0  0.7558051235973835  0.14768539043143392  0.40653160121291876  1.0000
  O   O7        1.0  0.8554277531802654  0.8926757769659162  0.8544360571540892  1.0000
  O   O8        1.0  0.34401566721498966  0.31796713126823306  0.4641898780828342  1.0000
  O   O9        1.0  0.8376779099926353  0.6654035114916041  0.4846738902851939  1.0000
  O   O10       1.0  0.5508209989347961  0.5165082316379994  0.020805641906918027  1.0000
  O   O11       1.0  0.7087977919727564  0.8258823698852211  0.6372707730624825  1.0000
  O   O12       1.0  0.8794096456840634  0.9666298624360934  0.3975579934194684  1.0000
  O   O13       1.0  0.4790309378877282  0.9572102017700672  0.9440246075391769  1.0000
  O   O14       1.0  0.8371187166776508  0.13088319660164416  0.7282767471624538  1.0000
data_image178
_chemical_formula_structural       Pr2P2H10C2O14
_chemical_formula_sum              "Pr2 P2 H10 C2 O14"
_cell_length_a       6.761788999999999
_cell_length_b       7.146483751908908
_cell_length_c       7.843598011864962
_cell_angle_alpha    110.54253585495134
_cell_angle_beta     95.79501476046597
_cell_angle_gamma    89.49575901902455

_space_group_name_H-M_alt    "P 1"
_space_group_IT_number       1

loop_
  _space_group_symop_operation_xyz
  'x, y, z'

loop_
  _atom_site_type_symbol
  _atom_site_label
  _atom_site_symmetry_multiplicity
  _atom_site_fract_x
  _atom_site_fract_y
  _atom_site_fract_z
  _atom_site_occupancy
  Pr  Pr1       1.0  0.17371134366840124  0.07678784406743944  0.19455203413963318  1.0000
  Pr  Pr2       1.0  0.7812662944197655  0.03757800534367561  0.43228848557919264  1.0000
  P   P1        1.0  0.6743988990783691  0.009060736745595932  0.9470749646425247  1.0000
  P   P2        1.0  0.46602534502744675  0.8862503226846457  0.7218226231634617  1.0000
  H   H1        1.0  0.5682860910892487  0.07856008224189281  0.13014402519911528  1.0000
  H   H2        1.0  0.8638768335804343  0.33100475021637976  0.7250077947974205  1.0000
  H   H3        1.0  0.6676334859803319  0.5467694103717804  0.9756615944206715  1.0000
  H   H4        1.0  0.7466595731675625  0.9730908599449322  0.14185517677105963  1.0000
  H   H5        1.0  0.92003208771348  0.2810495216399431  0.40809478610754013  1.0000
  H   H6        1.0  0.9344488205388188  0.5611130436882377  0.21181969717144966  1.0000
  H   H7        1.0  0.05511489056516439  0.3682130128145218  0.5683582462370396  1.0000
  H   H8        1.0  0.15156761929392815  0.7085408755228855  0.40242308797314763  1.0000
  H   H9        1.0  0.10838369652628899  0.7182919853366911  0.736328820232302  1.0000
  H   H10       1.0  0.3387165814638138  0.26737455278635025  0.7989322915673256  1.0000
  C   C1        1.0  0.4896305473521352  0.08403247781097889  0.5602112207561731  1.0000
  C   C2        1.0  0.9355130984913558  0.42600370664149523  0.8064432367682457  1.0000
  O   O1        1.0  0.2886443070601672  0.2909973468631506  0.9681463688611984  1.0000
  O   O2        1.0  0.674235403072089  0.9309982131235301  0.9542265082709491  1.0000
  O   O3        1.0  0.8629818842746317  0.8543438353808597  0.7848150134086609  1.0000
  O   O4        1.0  0.8547080811113119  0.03478414146229625  0.4872866861987859  1.0000
  O   O5        1.0  0.9555435864022002  0.041140743414871395  0.18882944699726067  1.0000
  O   O6        1.0  0.027229701168835163  0.5917131872847676  0.15647833421826363  1.0000
  O   O7        1.0  0.4936366640031338  0.13793700700625777  0.42186010093428195  1.0000
  O   O8        1.0  0.2874241778627038  0.797742075403221  0.8178881844796706  1.0000
  O   O9        1.0  0.5119699789211154  0.24394981563091278  0.7901683272793889  1.0000
  O   O10       1.0  0.1218588199117221  0.6126180025748909  0.9390933614849928  1.0000
  O   O11       1.0  0.583782950649038  0.09607328940182924  0.9297410789877176  1.0000
  O   O12       1.0  0.7902997169876471  0.9770716644125059  0.12890718202106655  1.0000
  O   O13       1.0  0.8048761403188109  0.7534192800521851  0.13906581234186888  1.0000
  O   O14       1.0  0.1698735263198614  0.9303121194243431  0.8446102445013821  1.0000
data_image179
_chemical_formula_structural       Pr2P2H10C2O14
_chemical_formula_sum              "Pr2 P2 H10 C2 O14"
_cell_length_a       6.761788999999999
_cell_length_b       7.146483751908908
_cell_length_c       7.843598011864962
_cell_angle_alpha    110.54253585495134
_cell_angle_beta     95.79501476046597
_cell_angle_gamma    89.49575901902455

_space_group_name_H-M_alt    "P 1"
_space_group_IT_number       1

loop_
  _space_group_symop_operation_xyz
  'x, y, z'

loop_
  _atom_site_type_symbol
  _atom_site_label
  _atom_site_symmetry_multiplicity
  _atom_site_fract_x
  _atom_site_fract_y
  _atom_site_fract_z
  _atom_site_occupancy
  Pr  Pr1       1.0  0.6088766530156136  0.036067856184672564  0.23949920572340488  1.0000
  Pr  Pr2       1.0  0.9420263357460499  0.0217287577688694  0.5450933836400509  1.0000
  P   P1        1.0  0.137140691280365  0.7027918957173824  0.7956999018788338  1.0000
  P   P2        1.0  0.6773699522018433  0.22627772111445665  0.9052440207451582  1.0000
  H   H1        1.0  0.3192690694704652  0.9567439891397953  0.9882173605728894  1.0000
  H   H2        1.0  0.1579125551506877  0.33753696107305586  0.44822306744754314  1.0000
  H   H3        1.0  0.0631462698802352  0.7448455411940813  0.9033627323806286  1.0000
  H   H4        1.0  0.4837019108235836  0.48658834025263786  0.2022100102622062  1.0000
  H   H5        1.0  0.29689798317849636  0.367123493924737  0.6556317135691643  1.0000
  H   H6        1.0  0.8878582082688808  0.19084524549543858  0.6293173702433705  1.0000
  H   H7        1.0  0.724003386188997  0.9397256877273321  0.21829084679484367  1.0000
  H   H8        1.0  0.3563912808895111  0.6825460848049261  0.4148965710774064  1.0000
  H   H9        1.0  0.10455887764692307  0.31988030043430626  0.49432824458926916  1.0000
  H   H10       1.0  0.6792019046843052  0.5341785959899426  0.6582698561251163  1.0000
  C   C1        1.0  0.031896195374429226  0.3841164540499449  0.5002487804740667  1.0000
  C   C2        1.0  0.3635888268472627  0.364330044016242  0.8519278187304735  1.0000
  O   O1        1.0  0.9227907503955066  0.6782714817672968  0.9957627467811108  1.0000
  O   O2        1.0  0.56365902768448  0.9126516184769571  0.29408935084939003  1.0000
  O   O3        1.0  0.1424336303025484  0.9025756122427993  0.08726228401064873  1.0000
  O   O4        1.0  0.01884989393875003  0.6677115436177701  0.6371808701660484  1.0000
  O   O5        1.0  0.11098716827109456  0.4814679282717407  0.42636422532086726  1.0000
  O   O6        1.0  0.38140311650931835  0.39338217955082655  0.30168909952044487  1.0000
  O   O7        1.0  0.671313289552927  0.719347249250859  0.12430980615317822  1.0000
  O   O8        1.0  0.859936092980206  0.9631008087308146  0.47622477158438414  1.0000
  O   O9        1.0  0.47550747683271766  0.989377946825698  0.7498163674026728  1.0000
  O   O10       1.0  0.7339985230064485  0.5949197267182171  0.8283826124315965  1.0000
  O   O11       1.0  0.448571490123868  0.6611331445164979  0.6049481201916933  1.0000
  O   O12       1.0  0.9381490191444755  0.8526774012716487  0.08979063900187612  1.0000
  O   O13       1.0  0.2382750790566206  0.14483994245529175  0.3342466461472213  1.0000
  O   O14       1.0  0.14466511900536716  0.8094226573593915  0.7568910107947886  1.0000
data_image180
_chemical_formula_structural       Pr2P2H10C2O14
_chemical_formula_sum              "Pr2 P2 H10 C2 O14"
_cell_length_a       6.761788999999999
_cell_length_b       7.146483751908908
_cell_length_c       7.843598011864962
_cell_angle_alpha    110.54253585495134
_cell_angle_beta     95.79501476046597
_cell_angle_gamma    89.49575901902455

_space_group_name_H-M_alt    "P 1"
_space_group_IT_number       1

loop_
  _space_group_symop_operation_xyz
  'x, y, z'

loop_
  _atom_site_type_symbol
  _atom_site_label
  _atom_site_symmetry_multiplicity
  _atom_site_fract_x
  _atom_site_fract_y
  _atom_site_fract_z
  _atom_site_occupancy
  Pr  Pr1       1.0  0.6316118501126766  0.17486607376486063  0.8746451064944267  1.0000
  Pr  Pr2       1.0  0.030934594571590424  0.42741165682673454  0.15589387901127338  1.0000
  P   P1        1.0  0.6476976275444031  0.47862662374973297  0.13131259381771088  1.0000
  P   P2        1.0  0.9369943588972092  0.49486692249774933  0.0008236188441514969  1.0000
  H   H1        1.0  0.028853520285338163  0.7242172192782164  0.7426331890746951  1.0000
  H   H2        1.0  0.33844673447310925  0.75661441241391  0.9542025178670883  1.0000
  H   H3        1.0  0.5162445129826665  0.9484262987971306  0.742233082652092  1.0000
  H   H4        1.0  0.9104526005685329  0.3202263261191547  0.33124996279366314  1.0000
  H   H5        1.0  0.4013170124962926  0.08136712945997715  0.5209965854883194  1.0000
  H   H6        1.0  0.7621112754568458  0.7870051637291908  0.43394898949190974  1.0000
  H   H7        1.0  0.7081680778574082  0.07877131178975105  0.7427152432501316  1.0000
  H   H8        1.0  0.0835828185081482  0.21610227355267853  0.7516051949933171  1.0000
  H   H9        1.0  0.6278730519115925  0.7820706218481064  0.15906357811763883  1.0000
  H   H10       1.0  0.8071189541369677  0.38778335228562355  0.6288139633834362  1.0000
  C   C1        1.0  0.6209734380245209  0.3175858994945884  0.41408293694257736  1.0000
  C   C2        1.0  0.4257626800099388  0.15894724242389202  0.814333931542933  1.0000
  O   O1        1.0  0.5171666585374624  0.3989337719976902  0.9611790776252747  1.0000
  O   O2        1.0  0.7582779687363654  0.14791730465367436  0.9864389440044761  1.0000
  O   O3        1.0  0.04129925789311528  0.7162869708263315  0.8874322567135096  1.0000
  O   O4        1.0  0.5592114522587508  0.9980466461274773  0.7815916652325541  1.0000
  O   O5        1.0  0.4052610865328461  0.8561550774029456  0.4214380805642577  1.0000
  O   O6        1.0  0.38155316188931465  0.8041164954192936  0.35658551286906004  1.0000
  O   O7        1.0  0.821878582239151  0.30034434888511896  0.31759366882033646  1.0000
  O   O8        1.0  0.4058986334130168  0.012644222937524319  0.6106200042413548  1.0000
  O   O9        1.0  0.23407301725819707  0.4447579300031066  0.9925501132383943  1.0000
  O   O10       1.0  0.1609572067100089  0.7982052169973031  0.7118748375651194  1.0000
  O   O11       1.0  0.06848603906109929  0.3945604544132948  0.9464157826732844  1.0000
  O   O12       1.0  0.13072487863246351  0.9792391040828079  0.009635960450395942  1.0000
  O   O13       1.0  0.14090700447559357  0.44440496526658535  0.5557179357856512  1.0000
  O   O14       1.0  0.23655964713543653  0.4047933218535036  0.345529233221896  1.0000
data_image181
_chemical_formula_structural       Pr2P2H10C2O14
_chemical_formula_sum              "Pr2 P2 H10 C2 O14"
_cell_length_a       6.761788999999999
_cell_length_b       7.146483751908908
_cell_length_c       7.843598011864962
_cell_angle_alpha    110.54253585495134
_cell_angle_beta     95.79501476046597
_cell_angle_gamma    89.49575901902455

_space_group_name_H-M_alt    "P 1"
_space_group_IT_number       1

loop_
  _space_group_symop_operation_xyz
  'x, y, z'

loop_
  _atom_site_type_symbol
  _atom_site_label
  _atom_site_symmetry_multiplicity
  _atom_site_fract_x
  _atom_site_fract_y
  _atom_site_fract_z
  _atom_site_occupancy
  Pr  Pr1       1.0  0.5842104079201818  0.8459839385468513  0.9641400398686528  1.0000
  Pr  Pr2       1.0  0.012387488037347794  0.8836998585611582  0.8853284735232592  1.0000
  P   P1        1.0  0.3366486430168152  0.9977189525961876  0.12227577716112137  1.0000
  P   P2        1.0  0.463995061814785  0.05838740989565849  0.1915361899882555  1.0000
  H   H1        1.0  0.18898368487134576  0.5648806858807802  0.8898093472234905  1.0000
  H   H2        1.0  0.8013499919325113  0.6681522645521909  0.09424993209540844  1.0000
  H   H3        1.0  0.31194328889250755  0.49482936039566994  0.22668657824397087  1.0000
  H   H4        1.0  0.9126817202195525  0.9211680213920772  0.3625102094374597  1.0000
  H   H5        1.0  0.7361210091039538  0.2970477994531393  0.2496143952012062  1.0000
  H   H6        1.0  0.39360421895980835  0.2822355180978775  0.8376615135930479  1.0000
  H   H7        1.0  0.06484241731232032  0.16646870970726013  0.5499915406107903  1.0000
  H   H8        1.0  0.6213159970939159  0.6052379930115421  0.3317741211503744  1.0000
  H   H9        1.0  0.2729136422276497  0.7626800569705665  0.5707391873002052  1.0000
  H   H10       1.0  0.9354079943150282  0.632488802075386  0.9315402396023273  1.0000
  C   C1        1.0  0.21369855478405952  0.20252319611608982  0.6724237967282534  1.0000
  C   C2        1.0  0.7051979320822284  0.37885021790862083  0.1909674061462283  1.0000
  O   O1        1.0  0.8338839609641582  0.5515387989580631  0.18005746975541115  1.0000
  O   O2        1.0  0.44253372377716005  0.4055933733470738  0.25469093862921  1.0000
  O   O3        1.0  0.9025465841405094  0.8927762159146369  0.6232542358338833  1.0000
  O   O4        1.0  0.9145818026736379  0.7396605131216347  0.41333424975164235  1.0000
  O   O5        1.0  0.5751791048096493  0.4983920555678196  0.33424038911471143  1.0000
  O   O6        1.0  0.6683875415474176  0.5279056853614748  0.8928892640396953  1.0000
  O   O7        1.0  0.15180972777307034  0.8226568885147572  0.4022595814894885  1.0000
  O   O8        1.0  0.7786355065181851  0.965208127949154  0.41530898422934115  1.0000
  O   O9        1.0  0.9566169702447951  0.03860729152802378  0.940860372968018  1.0000
  O   O10       1.0  0.962410203384934  0.7094706523930654  0.36770987269846955  1.0000
  O   O11       1.0  0.5377548506949097  0.0306233000010252  0.21366166323423386  1.0000
  O   O12       1.0  0.6052599055692554  0.9935028597246855  0.7289851349778473  1.0000
  O   O13       1.0  0.7973480876535177  0.33584876265376806  0.8547644116915762  1.0000
  O   O14       1.0  0.7461582527030259  0.6796775539405644  0.20282106625381857  1.0000
data_image182
_chemical_formula_structural       Pr2P2H10C2O14
_chemical_formula_sum              "Pr2 P2 H10 C2 O14"
_cell_length_a       6.761788999999999
_cell_length_b       7.146483751908908
_cell_length_c       7.843598011864962
_cell_angle_alpha    110.54253585495134
_cell_angle_beta     95.79501476046597
_cell_angle_gamma    89.49575901902455

_space_group_name_H-M_alt    "P 1"
_space_group_IT_number       1

loop_
  _space_group_symop_operation_xyz
  'x, y, z'

loop_
  _atom_site_type_symbol
  _atom_site_label
  _atom_site_symmetry_multiplicity
  _atom_site_fract_x
  _atom_site_fract_y
  _atom_site_fract_z
  _atom_site_occupancy
  Pr  Pr1       1.0  0.8894952293485403  0.7175142152700573  0.8000740576535463  1.0000
  Pr  Pr2       1.0  0.2949319817125797  0.36068166606128216  0.7213507751002908  1.0000
  P   P1        1.0  0.23632460832595825  0.9683286920189857  0.3153349235653877  1.0000
  P   P2        1.0  0.8108899295330048  0.4135996322147548  0.37796069495379925  1.0000
  H   H1        1.0  0.21235574455931783  0.6369511168450117  0.37783884978853166  1.0000
  H   H2        1.0  0.2490048110485077  0.9681733197066933  0.1269830521196127  1.0000
  H   H3        1.0  0.3069285433739424  0.5371052920818329  0.9597047604620457  1.0000
  H   H4        1.0  0.8415068853646517  0.5767235956154764  0.8137761878315359  1.0000
  H   H5        1.0  0.9649630542844534  0.8118405882269144  0.8984154760837555  1.0000
  H   H6        1.0  0.9482985930517316  0.9430617513135076  0.28475201362743974  1.0000
  H   H7        1.0  0.06052472407463938  0.17564107105135918  0.43656573072075844  1.0000
  H   H8        1.0  0.8159036263823509  0.03419761639088392  0.5033071232028306  1.0000
  H   H9        1.0  0.27854225039482117  0.32384248333983123  0.19488238170742989  1.0000
  H   H10       1.0  0.06329852156341076  0.3535325229167938  0.4566781111061573  1.0000
  C   C1        1.0  0.6883948994800448  0.09968835860490799  0.06688344478607178  1.0000
  C   C2        1.0  0.04336402181070298  0.3086880333721638  0.8464958937838674  1.0000
  O   O1        1.0  0.7885891266632825  0.012953953817486763  0.8759623318910599  1.0000
  O   O2        1.0  0.9952566078864038  0.18208133848384023  0.9632020727731287  1.0000
  O   O3        1.0  0.6337975696660578  0.20579467457719147  0.805194266140461  1.0000
  O   O4        1.0  0.18724191677756608  0.6943909316323698  0.6232493915595114  1.0000
  O   O5        1.0  0.4010621402412653  0.06993509386666119  0.35270772306103026  1.0000
  O   O6        1.0  0.0854168152436614  0.5122292977757752  0.455079585313797  1.0000
  O   O7        1.0  0.7833968438208103  0.6262470511719584  0.8845967291854322  1.0000
  O   O8        1.0  0.10250726342201233  0.31663784776174  0.06459265656303614  1.0000
  O   O9        1.0  0.7200109153054655  0.6444664293667302  0.5102533595636487  1.0000
  O   O10       1.0  0.9480686312308535  0.8505196697078645  0.8178574825869873  1.0000
  O   O11       1.0  0.08092357614077628  0.5565937962383032  0.1835044485051185  1.0000
  O   O12       1.0  0.1436546305194497  0.4845203695585951  0.4609184197615832  1.0000
  O   O13       1.0  0.1988174794241786  0.9843178652226925  0.8031288762576878  1.0000
  O   O14       1.0  0.45713023957796395  0.35645388229750097  0.8670374208595604  1.0000
data_image183
_chemical_formula_structural       Pr2P2H10C2O14
_chemical_formula_sum              "Pr2 P2 H10 C2 O14"
_cell_length_a       6.761788999999999
_cell_length_b       7.146483751908908
_cell_length_c       7.843598011864962
_cell_angle_alpha    110.54253585495134
_cell_angle_beta     95.79501476046597
_cell_angle_gamma    89.49575901902455

_space_group_name_H-M_alt    "P 1"
_space_group_IT_number       1

loop_
  _space_group_symop_operation_xyz
  'x, y, z'

loop_
  _atom_site_type_symbol
  _atom_site_label
  _atom_site_symmetry_multiplicity
  _atom_site_fract_x
  _atom_site_fract_y
  _atom_site_fract_z
  _atom_site_occupancy
  Pr  Pr1       1.0  0.13523531891405582  0.4490869785659015  0.5822837250307202  1.0000
  Pr  Pr2       1.0  0.49154598265886307  0.8595179915428162  0.2735277321189642  1.0000
  P   P1        1.0  0.558245062828064  0.968831729143858  0.26837795972824097  1.0000
  P   P2        1.0  0.5993987396359444  0.3420547532150522  0.9327710103243589  1.0000
  H   H1        1.0  0.8402661066502333  0.5651108678430319  0.8708321021404117  1.0000
  H   H2        1.0  0.9748088689520955  0.19201996503397822  0.11104871705174446  1.0000
  H   H3        1.0  0.5033339085057378  0.6986898258328438  0.8859358839690685  1.0000
  H   H4        1.0  0.5403762944042683  0.3517580187181011  0.1743787988089025  1.0000
  H   H5        1.0  0.9340524422004819  0.7761979382485151  0.5821196511387825  1.0000
  H   H6        1.0  0.14204896707087755  0.4067965466529131  0.5885730795562267  1.0000
  H   H7        1.0  0.6680633916985244  0.06675620190799236  0.45266663655638695  1.0000
  H   H8        1.0  0.5405304692685604  0.01493026944808662  0.5287038367241621  1.0000
  H   H9        1.0  0.7422962784767151  0.502168923150748  0.7778697023168206  1.0000
  H   H10       1.0  0.9323063343763351  0.5942266620695591  0.43650198355317116  1.0000
  C   C1        1.0  0.5371514009311795  0.4374594818800688  0.9070236254483461  1.0000
  C   C2        1.0  0.7142977064941078  0.27649771329015493  0.2743145879358053  1.0000
  O   O1        1.0  0.1736371989827603  0.15837946347892284  0.16424249485135078  1.0000
  O   O2        1.0  0.4233676712028682  0.5142939621582627  0.32559438003227115  1.0000
  O   O3        1.0  0.707452554255724  0.8480078685679473  0.3022036198526621  1.0000
  O   O4        1.0  0.26763164321891963  0.5412577395327389  0.675662198336795  1.0000
  O   O5        1.0  0.6534664802020416  0.4060057860915549  0.6631297789135715  1.0000
  O   O6        1.0  0.5497862016782165  0.7374483486637473  0.7935676360502839  1.0000
  O   O7        1.0  0.6622949074953794  0.3297355314716697  0.6752056281547993  1.0000
  O   O8        1.0  0.6051757475361228  0.1314605742591084  0.6859071716899052  1.0000
  O   O9        1.0  0.11570568289607763  0.7988725156756118  0.5137089807540178  1.0000
  O   O10       1.0  0.11471774656092748  0.6711202573496848  0.9015615825774148  1.0000
  O   O11       1.0  0.6048213406465948  0.1806800834601745  0.2838879704941064  1.0000
  O   O12       1.0  0.04250866512302309  0.188228904386051  0.1829059983137995  1.0000
  O   O13       1.0  0.30751512944698334  0.19559609703719616  0.5898366435430944  1.0000
  O   O14       1.0  0.336136243538931  0.63172547519207  0.07918865943793207  1.0000
data_image184
_chemical_formula_structural       Pr2P2H10C2O14
_chemical_formula_sum              "Pr2 P2 H10 C2 O14"
_cell_length_a       6.761788999999999
_cell_length_b       7.146483751908908
_cell_length_c       7.843598011864962
_cell_angle_alpha    110.54253585495134
_cell_angle_beta     95.79501476046597
_cell_angle_gamma    89.49575901902455

_space_group_name_H-M_alt    "P 1"
_space_group_IT_number       1

loop_
  _space_group_symop_operation_xyz
  'x, y, z'

loop_
  _atom_site_type_symbol
  _atom_site_label
  _atom_site_symmetry_multiplicity
  _atom_site_fract_x
  _atom_site_fract_y
  _atom_site_fract_z
  _atom_site_occupancy
  Pr  Pr1       1.0  0.811371324583888  0.3852208233438432  0.5018826965242624  1.0000
  Pr  Pr2       1.0  0.038815271109342575  0.30659388191998005  0.8513117134571075  1.0000
  P   P1        1.0  0.36816251277923584  0.633740346878767  0.29539693146944046  1.0000
  P   P2        1.0  0.02506360411643982  0.055417664125343435  0.3624594546854496  1.0000
  H   H1        1.0  0.9717267099767923  0.9022878669202328  0.8524156315252185  1.0000
  H   H2        1.0  0.48947833105921745  0.9637291980907321  0.8409058470278978  1.0000
  H   H3        1.0  0.3414723677560687  0.3404322639107704  0.6872559376060963  1.0000
  H   H4        1.0  0.2093179663643241  0.21598568465560675  0.8425908493809402  1.0000
  H   H5        1.0  0.7100168783217669  0.862440686672926  0.6922855824232101  1.0000
  H   H6        1.0  0.12087758537381887  0.6983234882354736  0.08529592305421829  1.0000
  H   H7        1.0  0.4164704172872007  0.7740715183317661  0.9252098724246025  1.0000
  H   H8        1.0  0.1815403401851654  0.5776347364298999  0.9429975445382297  1.0000
  H   H9        1.0  0.3228536807000637  0.28486383939161897  0.510966912843287  1.0000
  H   H10       1.0  0.9993030559271574  0.052090030163526535  0.023471243679523468  1.0000
  C   C1        1.0  0.7274614237248898  0.8393199844285846  0.06778664700686932  1.0000
  C   C2        1.0  0.9238742769230157  0.22525129932910204  0.6648394055664539  1.0000
  O   O1        1.0  0.9529226378072053  0.7677191514521837  0.14533493295311928  1.0000
  O   O2        1.0  0.254774765111506  0.8453939291648567  0.35220328299328685  1.0000
  O   O3        1.0  0.9544209213927388  0.6876321191084571  0.06154194474220276  1.0000
  O   O4        1.0  0.7991774994879961  0.7077231134753674  0.1406200199853629  1.0000
  O   O5        1.0  0.7357766603818163  0.31529765360755846  0.6364969206115347  1.0000
  O   O6        1.0  0.01535107847303152  0.1914015314541757  0.7503266939893365  1.0000
  O   O7        1.0  0.8724229596555233  0.5728214625269175  0.14786715991795063  1.0000
  O   O8        1.0  0.2849723696708679  0.5223664238146739  0.1705783528741449  1.0000
  O   O9        1.0  0.03946265624836087  0.0037568140542134643  0.179648881778121  1.0000
  O   O10       1.0  0.5471592205576599  0.09499227756168693  0.9576095653756056  1.0000
  O   O11       1.0  0.33721751417033374  0.7083215920720249  0.9106412258697674  1.0000
  O   O12       1.0  0.21059608925133944  0.25966773089021444  0.50506771216169  1.0000
  O   O13       1.0  0.15599717665463686  0.46419273130595684  0.5473976223729551  1.0000
  O   O14       1.0  0.907749691279605  0.22033048141747713  0.3295736418804154  1.0000
data_image185
_chemical_formula_structural       Pr2P2H10C2O14
_chemical_formula_sum              "Pr2 P2 H10 C2 O14"
_cell_length_a       6.761788999999999
_cell_length_b       7.146483751908908
_cell_length_c       7.843598011864962
_cell_angle_alpha    110.54253585495134
_cell_angle_beta     95.79501476046597
_cell_angle_gamma    89.49575901902455

_space_group_name_H-M_alt    "P 1"
_space_group_IT_number       1

loop_
  _space_group_symop_operation_xyz
  'x, y, z'

loop_
  _atom_site_type_symbol
  _atom_site_label
  _atom_site_symmetry_multiplicity
  _atom_site_fract_x
  _atom_site_fract_y
  _atom_site_fract_z
  _atom_site_occupancy
  Pr  Pr1       1.0  0.4903366770595312  0.7414113972336054  0.9421790018677711  1.0000
  Pr  Pr2       1.0  0.5424721427261829  0.5179203562438488  0.36462954711169004  1.0000
  P   P1        1.0  0.28502601385116577  0.9751704782247543  0.6086596325039864  1.0000
  P   P2        1.0  0.46937648206949234  0.6069476850097999  0.7506374977529049  1.0000
  H   H1        1.0  0.4607358556240797  0.3459051549434662  0.481197576969862  1.0000
  H   H2        1.0  0.6462870026007295  0.2434012684971094  0.17522140964865685  1.0000
  H   H3        1.0  0.40516186878085136  0.38494746945798397  0.5729486085474491  1.0000
  H   H4        1.0  0.9093447010964155  0.636025560554117  0.7432891528587788  1.0000
  H   H5        1.0  0.5242782700806856  0.19240078330039978  0.9235702678561211  1.0000
  H   H6        1.0  0.7610827498137951  0.11459200829267502  0.17830669065006077  1.0000
  H   H7        1.0  0.004825116950087249  0.04869212210178375  0.9488978832960129  1.0000
  H   H8        1.0  0.7652084715664387  0.5009471024386585  0.8575347866863012  1.0000
  H   H9        1.0  0.866556890308857  0.5697923416737467  0.8852097429335117  1.0000
  H   H10       1.0  0.50123480707407  0.17671097442507744  0.3185879923403263  1.0000
  C   C1        1.0  0.07522448152303696  0.09156373050063848  0.7360363528132439  1.0000
  C   C2        1.0  0.18659775191918015  0.8035317873582244  0.01703236997127533  1.0000
  O   O1        1.0  0.6306232002098113  0.5026601999998093  0.060636524111032486  1.0000
  O   O2        1.0  0.5886758910492063  0.48850497836247087  0.05254860641434789  1.0000
  O   O3        1.0  0.2796013276092708  0.4866189547465183  0.3145396541804075  1.0000
  O   O4        1.0  0.9028357025235891  0.9921061422210187  0.24465314345434308  1.0000
  O   O5        1.0  0.6452022937592119  0.7487461741548032  0.21680314983495919  1.0000
  O   O6        1.0  0.5553022911772132  0.5561435539275408  0.3596903942525387  1.0000
  O   O7        1.0  0.26844493113458157  0.7743917321786284  0.8614409959409386  1.0000
  O   O8        1.0  0.21928267274051905  0.17517020933155436  0.21314425766468048  1.0000
  O   O9        1.0  0.03489564033225179  0.7268861873308197  0.32167928386479616  1.0000
  O   O10       1.0  0.5667611615645001  0.4992695478722453  0.1461599191025016  1.0000
  O   O11       1.0  0.49324303842149675  0.6486877345014364  0.6284536275779828  1.0000
  O   O12       1.0  0.12013456237036735  0.631066880421713  0.4988559493795037  1.0000
  O   O13       1.0  0.2898066183552146  0.6239922661334276  0.532722023781389  1.0000
  O   O14       1.0  0.4352443031966686  0.4768674806691706  0.07125789311248809  1.0000
data_image186
_chemical_formula_structural       Pr2P2H10C2O14
_chemical_formula_sum              "Pr2 P2 H10 C2 O14"
_cell_length_a       6.761788999999999
_cell_length_b       7.146483751908908
_cell_length_c       7.843598011864962
_cell_angle_alpha    110.54253585495134
_cell_angle_beta     95.79501476046597
_cell_angle_gamma    89.49575901902455

_space_group_name_H-M_alt    "P 1"
_space_group_IT_number       1

loop_
  _space_group_symop_operation_xyz
  'x, y, z'

loop_
  _atom_site_type_symbol
  _atom_site_label
  _atom_site_symmetry_multiplicity
  _atom_site_fract_x
  _atom_site_fract_y
  _atom_site_fract_z
  _atom_site_occupancy
  Pr  Pr1       1.0  0.9584797462448478  0.03890787344425917  0.7705174498260021  1.0000
  Pr  Pr2       1.0  0.24941830523312092  0.9520068727433681  0.8685760041698813  1.0000
  P   P1        1.0  0.6692073792219162  0.6981570944190025  0.20215506479144096  1.0000
  P   P2        1.0  0.8623911589384079  0.5830930811935104  0.9251118302345276  1.0000
  H   H1        1.0  0.759230971802026  0.619196018204093  0.6906551585998386  1.0000
  H   H2        1.0  0.3454042710363865  0.04079254996031523  0.6549451760947704  1.0000
  H   H3        1.0  0.30398960411548615  0.36954214982688427  0.4875957854092121  1.0000
  H   H4        1.0  0.31921742018312216  0.6804833165369928  0.33373539289459586  1.0000
  H   H5        1.0  0.05517032276839018  0.606181038543582  0.6691376343369484  1.0000
  H   H6        1.0  0.4339723875746131  0.1812785854563117  0.7820864040404558  1.0000
  H   H7        1.0  0.3915758423972875  0.83672402985394  0.13542277738451958  1.0000
  H   H8        1.0  0.7809110134840012  0.13716307329013944  0.7275030692107975  1.0000
  H   H9        1.0  0.22807800769805908  0.7508611935190856  0.8426173822954297  1.0000
  H   H10       1.0  0.30529928766191006  0.6104601994156837  0.5489047802984715  1.0000
  C   C1        1.0  0.387555917724967  0.8189828591421247  0.0872966330498457  1.0000
  C   C2        1.0  0.6460521682165563  0.790852515026927  0.049278320744633675  1.0000
  O   O1        1.0  0.6966194869019091  0.8582741636782885  0.19573291763663292  1.0000
  O   O2        1.0  0.43935033306479454  0.7948793126270175  0.9709958066232502  1.0000
  O   O3        1.0  0.5514060566201806  0.6743294090265408  0.21296891942620277  1.0000
  O   O4        1.0  0.7018717299215496  0.7732522787991911  0.005202148808166385  1.0000
  O   O5        1.0  0.5759006931912154  0.5140308298286982  0.25105487413020455  1.0000
  O   O6        1.0  0.8438226720318198  0.19540669303387403  0.7692576991394162  1.0000
  O   O7        1.0  0.14299126900732517  0.43756508734077215  0.30076913302764297  1.0000
  O   O8        1.0  0.7229993436485529  0.8069471402559429  0.8881330448202789  1.0000
  O   O9        1.0  0.889372494071722  0.26424034872616176  0.3445808896794915  1.0000
  O   O10       1.0  0.0768407495052088  0.18283221952151507  0.50606981666715  1.0000
  O   O11       1.0  0.657644895138219  0.396522952538362  0.24808270926587284  1.0000
  O   O12       1.0  0.06612603063695133  0.09880633745342493  0.81137307244353  1.0000
  O   O13       1.0  0.6024810606613755  0.4050958435982466  0.6982291550375521  1.0000
  O   O14       1.0  0.991593019105494  0.8011982690077275  0.2581421796930954  1.0000
data_image187
_chemical_formula_structural       Pr2P2H10C2O14
_chemical_formula_sum              "Pr2 P2 H10 C2 O14"
_cell_length_a       6.761788999999999
_cell_length_b       7.146483751908908
_cell_length_c       7.843598011864962
_cell_angle_alpha    110.54253585495134
_cell_angle_beta     95.79501476046597
_cell_angle_gamma    89.49575901902455

_space_group_name_H-M_alt    "P 1"
_space_group_IT_number       1

loop_
  _space_group_symop_operation_xyz
  'x, y, z'

loop_
  _atom_site_type_symbol
  _atom_site_label
  _atom_site_symmetry_multiplicity
  _atom_site_fract_x
  _atom_site_fract_y
  _atom_site_fract_z
  _atom_site_occupancy
  Pr  Pr1       1.0  0.3567034089937806  0.2339351363480091  0.5490418476983905  1.0000
  Pr  Pr2       1.0  0.9023103443905711  0.870799595490098  0.30537117435596883  1.0000
  P   P1        1.0  0.9244202822446823  0.8047411926090717  0.9662208727095276  1.0000
  P   P2        1.0  0.5064190626144409  0.9553472650732147  0.06497091427445412  1.0000
  H   H1        1.0  0.5855436832644045  0.8493383750319481  0.20236257323995233  1.0000
  H   H2        1.0  0.34205144736915827  0.116243751719594  0.03810175508260727  1.0000
  H   H3        1.0  0.09470908157527447  0.522914320230484  0.40591850504279137  1.0000
  H   H4        1.0  0.16779616940766573  0.9977324181236327  0.2921048356220126  1.0000
  H   H5        1.0  0.5984994098544121  0.22291135042905807  0.6646674871444702  1.0000
  H   H6        1.0  0.16198044829070568  0.2913869861513376  0.9128325718920678  1.0000
  H   H7        1.0  0.7933462291257456  0.1337687224149704  0.39584270492196083  1.0000
  H   H8        1.0  0.20978489145636559  0.18504223367199302  0.48506505507975817  1.0000
  H   H9        1.0  0.0007198043167591095  0.7868096977472305  0.038855647668242455  1.0000
  H   H10       1.0  0.7163885813206434  0.7169814556837082  0.6075499020516872  1.0000
  C   C1        1.0  0.9156422223895788  0.639584512449801  0.8043816480785608  1.0000
  C   C2        1.0  0.005507762776687741  0.15218961983919144  0.4297121921554208  1.0000
  O   O1        1.0  0.23682301491498947  0.9038638360798359  0.06321806460618973  1.0000
  O   O2        1.0  0.8683566502295434  0.6624560384079814  0.23455050587654114  1.0000
  O   O3        1.0  0.9750572959892452  0.8157211403813562  0.1110987737774849  1.0000
  O   O4        1.0  0.26678801351226866  0.1832680464722216  0.7866855806205422  1.0000
  O   O5        1.0  0.4554100732784718  0.2349545051692985  0.9471564465602569  1.0000
  O   O6        1.0  0.161254215054214  0.8378041386604309  0.04885846748948097  1.0000
  O   O7        1.0  0.28291185945272446  0.7184763588011265  0.9758950942195952  1.0000
  O   O8        1.0  0.08578319847583771  0.506572074489668  0.1993262437172234  1.0000
  O   O9        1.0  0.9187886025756598  0.20363624207675457  0.3490387387573719  1.0000
  O   O10       1.0  0.4995373448909959  0.20952012529596686  0.5769848423660733  1.0000
  O   O11       1.0  0.45264631253667176  0.3561783810146153  0.9412243289407343  1.0000
  O   O12       1.0  0.7654831385007128  0.18222681700717658  0.8226859050337225  1.0000
  O   O13       1.0  0.364426844753325  0.3738835956901312  0.21367279114201665  1.0000
  O   O14       1.0  0.9533801686484367  0.23603495117276907  0.04618104314431548  1.0000
data_image188
_chemical_formula_structural       Pr2P2H10C2O14
_chemical_formula_sum              "Pr2 P2 H10 C2 O14"
_cell_length_a       6.761788999999999
_cell_length_b       7.146483751908908
_cell_length_c       7.843598011864962
_cell_angle_alpha    110.54253585495134
_cell_angle_beta     95.79501476046597
_cell_angle_gamma    89.49575901902455

_space_group_name_H-M_alt    "P 1"
_space_group_IT_number       1

loop_
  _space_group_symop_operation_xyz
  'x, y, z'

loop_
  _atom_site_type_symbol
  _atom_site_label
  _atom_site_symmetry_multiplicity
  _atom_site_fract_x
  _atom_site_fract_y
  _atom_site_fract_z
  _atom_site_occupancy
  Pr  Pr1       1.0  0.1608804576098919  0.9799068383872509  0.030667106620967388  1.0000
  Pr  Pr2       1.0  0.6978756855241954  0.009952424094080925  0.5558922756463289  1.0000
  P   P1        1.0  0.2754083573818207  0.4038935713469982  0.9674337916076183  1.0000
  P   P2        1.0  0.15404614806175232  0.35066159421694465  0.29156812466681004  1.0000
  H   H1        1.0  0.08580668782815337  0.5233920533210039  0.6815005564130843  1.0000
  H   H2        1.0  0.48173618968576193  0.3833161313086748  0.14185758493840694  1.0000
  H   H3        1.0  0.03226713091135025  0.39574020728468895  0.6901125572621822  1.0000
  H   H4        1.0  0.48929503466933966  0.36442432226613164  0.7203500899486244  1.0000
  H   H5        1.0  0.23899649642407894  0.16572521440684795  0.7514463737607002  1.0000
  H   H6        1.0  0.1424895990639925  0.8512748405337334  0.5885678357444704  1.0000
  H   H7        1.0  0.9071490541100502  0.8494328251108527  0.37249555066227913  1.0000
  H   H8        1.0  0.41665229573845863  0.9450597539544106  0.086860531126149  1.0000
  H   H9        1.0  0.25128232687711716  0.49259469099342823  0.3853145148605108  1.0000
  H   H10       1.0  0.6430968847125769  0.36344698816537857  0.7449266463518143  1.0000
  C   C1        1.0  0.6811772398650646  0.8214372163638473  0.8596284184604883  1.0000
  C   C2        1.0  0.3327009635977447  0.6402263166382909  0.37041070219129324  1.0000
  O   O1        1.0  0.004188151331618428  0.6052493341267109  0.03304941952228546  1.0000
  O   O2        1.0  0.6358195941429585  0.2840310363098979  0.5539221176877618  1.0000
  O   O3        1.0  0.6065613538958132  0.6987750489643076  0.5186637751758099  1.0000
  O   O4        1.0  0.6050723240477964  0.9656054759398103  0.3961791396141052  1.0000
  O   O5        1.0  0.19435395766049623  0.8558343593613245  0.1833117648791358  1.0000
  O   O6        1.0  0.28903048299252987  0.7877047494985163  0.926477562636137  1.0000
  O   O7        1.0  0.26726312190294266  0.5732838646508753  0.30026046466082335  1.0000
  O   O8        1.0  0.695577540434897  0.6551228302996606  0.6701535601168871  1.0000
  O   O9        1.0  0.6028528548777103  0.6417662422172725  0.891827043145895  1.0000
  O   O10       1.0  0.43356574421341065  0.8156442132312804  0.15767797935404815  1.0000
  O   O11       1.0  0.12214901309926063  0.09699205681681633  0.6992070151027292  1.0000
  O   O12       1.0  0.2920922478660941  0.2385222865268588  0.14987090905196965  1.0000
  O   O13       1.0  0.7784442449919879  0.821918279863894  0.4364094524644315  1.0000
  O   O14       1.0  0.6052446044050157  0.6447497399058193  0.3399226126493886  1.0000
data_image189
_chemical_formula_structural       Pr2P2H10C2O14
_chemical_formula_sum              "Pr2 P2 H10 C2 O14"
_cell_length_a       6.761788999999999
_cell_length_b       7.146483751908908
_cell_length_c       7.843598011864962
_cell_angle_alpha    110.54253585495134
_cell_angle_beta     95.79501476046597
_cell_angle_gamma    89.49575901902455

_space_group_name_H-M_alt    "P 1"
_space_group_IT_number       1

loop_
  _space_group_symop_operation_xyz
  'x, y, z'

loop_
  _atom_site_type_symbol
  _atom_site_label
  _atom_site_symmetry_multiplicity
  _atom_site_fract_x
  _atom_site_fract_y
  _atom_site_fract_z
  _atom_site_occupancy
  Pr  Pr1       1.0  0.42669442016631365  0.3873204290866852  0.024176448583602905  1.0000
  Pr  Pr2       1.0  0.03748386054940056  0.03420933522284031  0.7940224474295974  1.0000
  P   P1        1.0  0.6616420149803162  0.9589593820273876  0.3348059933632612  1.0000
  P   P2        1.0  0.04517173022031784  0.40842937043635175  0.3324578236788511  1.0000
  H   H1        1.0  0.4679518030025065  0.05349547602236271  0.386380001436919  1.0000
  H   H2        1.0  0.3418715465813875  0.6964839408174157  0.19706149213016033  1.0000
  H   H3        1.0  0.48709470592439175  0.7943471055477858  0.3870650827884674  1.0000
  H   H4        1.0  0.32977239042520523  0.7800420084968209  0.904584601521492  1.0000
  H   H5        1.0  0.5058013116940856  0.6913970187306404  0.4913953021168709  1.0000
  H   H6        1.0  0.8535920772701502  0.19474019296467304  0.9457029006443918  1.0000
  H   H7        1.0  0.743347147537861  0.664099202491343  0.23000091686844826  1.0000
  H   H8        1.0  0.5732595510780811  0.0490504433400929  0.9254340237239376  1.0000
  H   H9        1.0  0.30059805512428284  0.5432981885969639  0.700922291725874  1.0000
  H   H10       1.0  0.24052719585597515  0.821337528526783  0.34600935876369476  1.0000
  C   C1        1.0  0.0706279668956995  0.6408415865153074  0.6695846486836672  1.0000
  C   C2        1.0  0.17071541282348335  0.2606665603816509  0.4743403787724674  1.0000
  O   O1        1.0  0.40297982352785766  0.7080586422234774  0.7504814527928829  1.0000
  O   O2        1.0  0.35903201438486576  0.788421809207648  0.08073828741908073  1.0000
  O   O3        1.0  0.08727494068443775  0.9917228035774315  0.22080498561263084  1.0000
  O   O4        1.0  0.1436426939908415  0.4884486619848758  0.19989259401336312  1.0000
  O   O5        1.0  0.477093311608769  0.4279993139207363  0.848910644528587  1.0000
  O   O6        1.0  0.3906022822484374  0.4610917968675494  0.22266642469912767  1.0000
  O   O7        1.0  0.08468931168317795  0.45459209801629186  0.6210423447191715  1.0000
  O   O8        1.0  0.9712061146274209  0.3483240455389023  0.7131266840733588  1.0000
  O   O9        1.0  0.17274160124361515  0.9366428558714688  0.4458640720695257  1.0000
  O   O10       1.0  0.8070136323804036  0.3043801439926028  0.21549293855787255  1.0000
  O   O11       1.0  0.0584956263191998  0.7156700589694083  0.8944085917901248  1.0000
  O   O12       1.0  0.17104776378255337  0.19542876409832388  0.9520424709189683  1.0000
  O   O13       1.0  0.7849253043532372  0.9725226890295744  0.4460103940218687  1.0000
  O   O14       1.0  0.4908210914582014  0.5751226104330271  0.5487735536880791  1.0000
data_image190
_chemical_formula_structural       Pr2P2H10C2O14
_chemical_formula_sum              "Pr2 P2 H10 C2 O14"
_cell_length_a       6.761788999999999
_cell_length_b       7.146483751908908
_cell_length_c       7.843598011864962
_cell_angle_alpha    110.54253585495134
_cell_angle_beta     95.79501476046597
_cell_angle_gamma    89.49575901902455

_space_group_name_H-M_alt    "P 1"
_space_group_IT_number       1

loop_
  _space_group_symop_operation_xyz
  'x, y, z'

loop_
  _atom_site_type_symbol
  _atom_site_label
  _atom_site_symmetry_multiplicity
  _atom_site_fract_x
  _atom_site_fract_y
  _atom_site_fract_z
  _atom_site_occupancy
  Pr  Pr1       1.0  0.13359695579856634  0.3924761223606765  0.8701318148523569  1.0000
  Pr  Pr2       1.0  0.996507246629335  0.26600221171975136  0.6806459305807948  1.0000
  P   P1        1.0  0.6155739799141884  0.7317200861871243  0.9959804210811853  1.0000
  P   P2        1.0  0.0017936304211616516  0.5703074043849483  0.2705447096377611  1.0000
  H   H1        1.0  0.3122606221586466  0.8264008052647114  0.6613217135891318  1.0000
  H   H2        1.0  0.6887595904991031  0.5223936308175325  0.8693242650479078  1.0000
  H   H3        1.0  0.11155429668724537  0.7201486639678478  0.08858779072761536  1.0000
  H   H4        1.0  0.17823704797774553  0.42210232513025403  0.40334197506308556  1.0000
  H   H5        1.0  0.9982308028265834  0.5482106804847717  0.49156952649354935  1.0000
  H   H6        1.0  0.352888198569417  0.4703553020954132  0.8473029946908355  1.0000
  H   H7        1.0  0.8130992869264446  0.91218052059412  0.04889269545674324  1.0000
  H   H8        1.0  0.7557687945663929  0.8070755084045231  0.8208627733401954  1.0000
  H   H9        1.0  0.6225971579551697  0.5312185995280743  0.5729241725057364  1.0000
  H   H10       1.0  0.6542263403534889  0.560075543820858  0.2758135460317135  1.0000
  C   C1        1.0  0.9661653311923146  0.8574008960276842  0.8680284805595875  1.0000
  C   C2        1.0  0.33264714293181896  0.8039096817374229  0.9002566337585449  1.0000
  O   O1        1.0  0.7849397917743772  0.049392445012927055  0.942426934838295  1.0000
  O   O2        1.0  0.5339428563602269  0.6105123185552657  0.6736294012516737  1.0000
  O   O3        1.0  0.10563682205975056  0.04907211460522376  0.9618473816663027  1.0000
  O   O4        1.0  0.5556853783782572  0.04318981897085905  0.15541763184592128  1.0000
  O   O5        1.0  0.1665571314515546  0.9312179104308598  0.7695565317139881  1.0000
  O   O6        1.0  0.20130522549152374  0.033024925738573074  0.5264821778982878  1.0000
  O   O7        1.0  0.7335815466940403  0.11765013542026281  0.7841146350838244  1.0000
  O   O8        1.0  0.9694928806275129  0.8254509558901191  0.559216539375484  1.0000
  O   O9        1.0  0.971404277253896  0.7393717430531979  0.620514951646328  1.0000
  O   O10       1.0  0.17921295804262627  0.4682049354305491  0.47567833808716387  1.0000
  O   O11       1.0  0.02788588311523199  0.8359264959581196  0.6400552766863257  1.0000
  O   O12       1.0  0.019019581377506256  0.8311261015478522  0.0539473807439208  1.0000
  O   O13       1.0  0.606908886693418  0.2314887586981058  0.8864826862700284  1.0000
  O   O14       1.0  0.9371408259030432  0.08173663425259292  0.01991380925755948  1.0000
data_image191
_chemical_formula_structural       Pr2P2H10C2O14
_chemical_formula_sum              "Pr2 P2 H10 C2 O14"
_cell_length_a       6.761788999999999
_cell_length_b       7.146483751908908
_cell_length_c       7.843598011864962
_cell_angle_alpha    110.54253585495134
_cell_angle_beta     95.79501476046597
_cell_angle_gamma    89.49575901902455

_space_group_name_H-M_alt    "P 1"
_space_group_IT_number       1

loop_
  _space_group_symop_operation_xyz
  'x, y, z'

loop_
  _atom_site_type_symbol
  _atom_site_label
  _atom_site_symmetry_multiplicity
  _atom_site_fract_x
  _atom_site_fract_y
  _atom_site_fract_z
  _atom_site_occupancy
  Pr  Pr1       1.0  0.7802508557215333  0.8472140985541046  0.590341379866004  1.0000
  Pr  Pr2       1.0  0.33372786827385426  0.7645717989653349  0.8207005299627781  1.0000
  P   P1        1.0  0.6069980710744858  0.6389793083071709  0.750874038785696  1.0000
  P   P2        1.0  0.15854047983884811  0.1291857089381665  0.1194967869669199  1.0000
  H   H1        1.0  0.60266283294186  0.3194611594080925  0.6294251885265112  1.0000
  H   H2        1.0  0.951213076710701  0.20623313914984465  0.42498404905200005  1.0000
  H   H3        1.0  0.5842648958787322  0.15604498982429504  0.7239927165210247  1.0000
  H   H4        1.0  0.260418564081192  0.5123271718621254  0.19805387151427567  1.0000
  H   H5        1.0  0.8650857182219625  0.8511411193758249  0.8004732355475426  1.0000
  H   H6        1.0  0.5118210054934025  0.2559009185060859  0.28308795811608434  1.0000
  H   H7        1.0  0.5475996414897963  0.2745935916900635  0.8485710434615612  1.0000
  H   H8        1.0  0.8666920065879822  0.16432897979393601  0.585337721160613  1.0000
  H   H9        1.0  0.12757642567157745  0.5877069905400276  0.3775168601423502  1.0000
  H   H10       1.0  0.6869651786983013  0.6003984808921814  0.007951222360134125  1.0000
  C   C1        1.0  0.1236124662682414  0.5202341247349977  0.342567203566432  1.0000
  C   C2        1.0  0.8656366053037345  0.46396380849182606  0.9072114499285817  1.0000
  O   O1        1.0  0.6482655256986618  0.802025968208909  0.3314151018857956  1.0000
  O   O2        1.0  0.6089637672994286  0.33352431282401085  0.19027952663600445  1.0000
  O   O3        1.0  0.11672646505758166  0.12379409838467836  0.6355515401810408  1.0000
  O   O4        1.0  0.478430904680863  0.8171263569965959  0.9084285444114357  1.0000
  O   O5        1.0  0.6356567507609725  0.6042249475722201  0.39229882284598716  1.0000
  O   O6        1.0  0.01098658237606287  0.14638565061613917  0.04339834023267031  1.0000
  O   O7        1.0  0.07306637242436409  0.7399275279603899  0.4615283622406423  1.0000
  O   O8        1.0  0.14085393864661455  0.5421690095681697  0.8759666704572737  1.0000
  O   O9        1.0  0.7632588283158839  0.46598347229883075  0.028662020340561867  1.0000
  O   O10       1.0  0.022426570358220488  0.6781699464190751  0.6665987603046233  1.0000
  O   O11       1.0  0.6192569033009931  0.0182104273699224  0.409416998969391  1.0000
  O   O12       1.0  0.9642345486208797  0.5985609006602317  0.04142067255452275  1.0000
  O   O13       1.0  0.6852030898444355  0.1808258229866624  0.5876973946578801  1.0000
  O   O14       1.0  0.6015929242130369  0.7019539766479284  0.675722299492918  1.0000
data_image192
_chemical_formula_structural       Pr2P2H10C2O14
_chemical_formula_sum              "Pr2 P2 H10 C2 O14"
_cell_length_a       6.761788999999999
_cell_length_b       7.146483751908908
_cell_length_c       7.843598011864962
_cell_angle_alpha    110.54253585495134
_cell_angle_beta     95.79501476046597
_cell_angle_gamma    89.49575901902455

_space_group_name_H-M_alt    "P 1"
_space_group_IT_number       1

loop_
  _space_group_symop_operation_xyz
  'x, y, z'

loop_
  _atom_site_type_symbol
  _atom_site_label
  _atom_site_symmetry_multiplicity
  _atom_site_fract_x
  _atom_site_fract_y
  _atom_site_fract_z
  _atom_site_occupancy
  Pr  Pr1       1.0  0.9588432777673006  0.746408246923238  0.978980059735477  1.0000
  Pr  Pr2       1.0  0.666531162103638  0.2549123875796795  0.17825380340218544  1.0000
  P   P1        1.0  0.8553036600351334  0.08303975313901901  0.48090289905667305  1.0000
  P   P2        1.0  0.25896497815847397  0.39534257404739037  0.2197417188435793  1.0000
  H   H1        1.0  0.5026224353350699  0.8274015597999096  0.5356888370588422  1.0000
  H   H2        1.0  0.7961273351684213  0.7231304598972201  0.5630459506064653  1.0000
  H   H3        1.0  0.7674374142661691  0.2107867021113634  0.4940056651830673  1.0000
  H   H4        1.0  0.603613349609077  0.7129882001318038  0.9418830050854012  1.0000
  H   H5        1.0  0.8612165153026581  0.3460885528475046  0.8702874258160591  1.0000
  H   H6        1.0  0.5929054114967585  0.6591635253280401  0.29838008899241686  1.0000
  H   H7        1.0  0.5900220448384061  0.7676688311621547  0.9874965623021126  1.0000
  H   H8        1.0  0.8905731253325939  0.5186386909335852  0.22066473902668804  1.0000
  H   H9        1.0  0.18498710915446281  0.8298561498522758  0.3720802180469036  1.0000
  H   H10       1.0  0.6713071838021278  0.22135179489850998  0.9050342030823231  1.0000
  C   C1        1.0  0.903947866987437  0.0765725364908576  0.13325694762170315  1.0000
  C   C2        1.0  0.24150798423215747  0.32667511608451605  0.5269935657270253  1.0000
  O   O1        1.0  0.2999520644079894  0.5922497734427452  0.2735939919948578  1.0000
  O   O2        1.0  0.3821533410809934  0.07003399822860956  0.4122766391374171  1.0000
  O   O3        1.0  0.01814222801476717  0.22831032774411142  0.8689549267292023  1.0000
  O   O4        1.0  0.2947396518429741  0.03906912333332002  0.7408828216139227  1.0000
  O   O5        1.0  0.35389453428797424  0.41636116901645437  0.8047727015182318  1.0000
  O   O6        1.0  0.7083082785829902  0.5977926948107779  0.9895111341029406  1.0000
  O   O7        1.0  0.9521786905825138  0.14530321676284075  0.9343877164646983  1.0000
  O   O8        1.0  0.6935400860384107  0.42039905372075737  0.9153425507247448  1.0000
  O   O9        1.0  0.0675069997087121  0.8123011724092066  0.45248510129749775  1.0000
  O   O10       1.0  0.23651066043385072  0.439549061935395  0.7904727903842286  1.0000
  O   O11       1.0  0.5887456928030588  0.49340904457494617  0.13158907531760633  1.0000
  O   O12       1.0  0.6629350332077593  0.6617985587799922  0.8516575642861426  1.0000
  O   O13       1.0  0.2487727771513164  0.6314764246344566  0.880944512784481  1.0000
  O   O14       1.0  0.7130886714439839  0.008891062811017036  0.1769288992509246  1.0000
data_image193
_chemical_formula_structural       Pr2P2H10C2O14
_chemical_formula_sum              "Pr2 P2 H10 C2 O14"
_cell_length_a       6.761788999999999
_cell_length_b       7.146483751908908
_cell_length_c       7.843598011864962
_cell_angle_alpha    110.54253585495134
_cell_angle_beta     95.79501476046597
_cell_angle_gamma    89.49575901902455

_space_group_name_H-M_alt    "P 1"
_space_group_IT_number       1

loop_
  _space_group_symop_operation_xyz
  'x, y, z'

loop_
  _atom_site_type_symbol
  _atom_site_label
  _atom_site_symmetry_multiplicity
  _atom_site_fract_x
  _atom_site_fract_y
  _atom_site_fract_z
  _atom_site_occupancy
  Pr  Pr1       1.0  0.32480279356241226  0.4197745183482766  0.4012167267501354  1.0000
  Pr  Pr2       1.0  0.6079326285980642  0.5496014077216387  0.4024498797953129  1.0000
  P   P1        1.0  0.13586506247520447  0.9238874465227127  0.6227844879031181  1.0000
  P   P2        1.0  0.29321660846471786  0.784004240646027  0.05378066003322601  1.0000
  H   H1        1.0  0.2095580748282373  0.7156817279756069  0.11035503423772752  1.0000
  H   H2        1.0  0.05360146798193455  0.15688695199787617  0.6129987854510546  1.0000
  H   H3        1.0  0.20041742362082005  0.7567738126963377  0.3879975713789463  1.0000
  H   H4        1.0  0.5749973263591528  0.6910989894531667  0.7271285195602104  1.0000
  H   H5        1.0  0.9409237690269947  0.3701531831175089  0.42251523584127426  1.0000
  H   H6        1.0  0.11077510192990303  0.2686424935236573  0.7011715061962605  1.0000
  H   H7        1.0  0.2007175339385867  0.7733629290014505  0.8091582097113132  1.0000
  H   H8        1.0  0.5656317733228207  0.5930794510059059  0.04798089200630784  1.0000
  H   H9        1.0  0.9415681324899197  0.218115396797657  0.13685047253966331  1.0000
  H   H10       1.0  0.5135084390640259  0.06232064962387085  0.12907181680202484  1.0000
  C   C1        1.0  0.2534012789838016  0.36919652484357357  0.1703006885945797  1.0000
  C   C2        1.0  0.5836569918319583  0.1303682578727603  0.06902899267151952  1.0000
  O   O1        1.0  0.5771187755744904  0.26728490740060806  0.4161982201039791  1.0000
  O   O2        1.0  0.6016827246639878  0.46951023070141673  0.19209570437669754  1.0000
  O   O3        1.0  0.2604739530943334  0.4223109441809356  0.8138488493859768  1.0000
  O   O4        1.0  0.836363767972216  0.6000593134667724  0.9609452134463936  1.0000
  O   O5        1.0  0.6529733139323071  0.09159667690983042  0.7383305952243973  1.0000
  O   O6        1.0  0.08710782136768103  0.9442088333889842  0.6543574063107371  1.0000
  O   O7        1.0  0.6029615662992001  0.7482302128337324  0.08008883707225323  1.0000
  O   O8        1.0  0.6617902312427759  0.055410879431292415  0.929562914185226  1.0000
  O   O9        1.0  0.06696595204994082  0.13024919386953115  0.3160657435655594  1.0000
  O   O10       1.0  0.6675719240301987  0.07871657540090382  0.8625071517890319  1.0000
  O   O11       1.0  0.7330933397170156  0.07125813188031316  0.894763418706134  1.0000
  O   O12       1.0  0.33607142698019743  0.28751853050198406  0.24221609509550035  1.0000
  O   O13       1.0  0.8988582314923406  0.020818354561924934  0.4518048297613859  1.0000
  O   O14       1.0  0.9756417938042432  0.22039605514146388  0.8548625335097313  1.0000
data_image194
_chemical_formula_structural       Pr2P2H10C2O14
_chemical_formula_sum              "Pr2 P2 H10 C2 O14"
_cell_length_a       6.761788999999999
_cell_length_b       7.146483751908908
_cell_length_c       7.843598011864962
_cell_angle_alpha    110.54253585495134
_cell_angle_beta     95.79501476046597
_cell_angle_gamma    89.49575901902455

_space_group_name_H-M_alt    "P 1"
_space_group_IT_number       1

loop_
  _space_group_symop_operation_xyz
  'x, y, z'

loop_
  _atom_site_type_symbol
  _atom_site_label
  _atom_site_symmetry_multiplicity
  _atom_site_fract_x
  _atom_site_fract_y
  _atom_site_fract_z
  _atom_site_occupancy
  Pr  Pr1       1.0  0.4723964761942625  0.38986477348953485  0.2609307821840048  1.0000
  Pr  Pr2       1.0  0.2793475231155753  0.298181863501668  0.24658098630607128  1.0000
  P   P1        1.0  0.17991914600133896  0.8503706380724907  0.06562704592943192  1.0000
  P   P2        1.0  0.8258168399333954  0.2401259913458489  0.3282410129904747  1.0000
  H   H1        1.0  0.03229913464747369  0.1265160646289587  0.7139896417502314  1.0000
  H   H2        1.0  0.7986139515414834  0.09093059413135052  0.5424788892269135  1.0000
  H   H3        1.0  0.5315260021016002  0.26612524688243866  0.4826805181801319  1.0000
  H   H4        1.0  0.623196218162775  0.8928908058442175  0.09368727070977911  1.0000
  H   H5        1.0  0.16021519899368286  0.6335790511220694  0.08509448915719986  1.0000
  H   H6        1.0  0.9981660526245832  0.7671122192405164  0.9514312902465463  1.0000
  H   H7        1.0  0.4706178139895201  0.8566258512437344  0.8953647837042809  1.0000
  H   H8        1.0  0.4641159102320671  0.46619000658392906  0.9605251764878631  1.0000
  H   H9        1.0  0.7101978398859501  0.5418048873543739  0.5746831744909286  1.0000
  H   H10       1.0  0.8679807186126709  0.9507487341761589  0.05609266087412834  1.0000
  C   C1        1.0  0.41022333269938827  0.8742013648152351  0.153497114777565  1.0000
  C   C2        1.0  0.720591798890382  0.8815593924373388  0.8708652281202376  1.0000
  O   O1        1.0  0.42392042581923306  0.25742223486304283  0.31537532061338425  1.0000
  O   O2        1.0  0.8420609233435243  0.6512332251295447  0.07441910682246089  1.0000
  O   O3        1.0  0.6541278315708041  0.3401578369666822  0.8723992928862572  1.0000
  O   O4        1.0  0.15980164683423936  0.539699916029349  0.21189851220697165  1.0000
  O   O5        1.0  0.29882280866149813  0.4035629628924653  0.5126673959457548  1.0000
  O   O6        1.0  0.9998047612607479  0.8524180762469769  0.29247334878891706  1.0000
  O   O7        1.0  0.44260046631097794  0.12217709515243769  0.5200128145515919  1.0000
  O   O8        1.0  0.1332953991368413  0.8171141361817718  0.38586546666920185  1.0000
  O   O9        1.0  0.19898222479969263  0.5074534900486469  0.037001606076955795  1.0000
  O   O10       1.0  0.6077243972686119  0.5470797952730209  0.3824611969757825  1.0000
  O   O11       1.0  0.15657337615266442  0.06458418117836118  0.7396441856399179  1.0000
  O   O12       1.0  0.44664107577409595  0.9466507366159931  0.6154075579252094  1.0000
  O   O13       1.0  0.04163468722254038  0.9325099792331457  0.21096989326179028  1.0000
  O   O14       1.0  0.8347589778713882  0.734583250246942  0.8002938556019217  1.0000
data_image195
_chemical_formula_structural       Pr2P2H10C2O14
_chemical_formula_sum              "Pr2 P2 H10 C2 O14"
_cell_length_a       6.761788999999999
_cell_length_b       7.146483751908908
_cell_length_c       7.843598011864962
_cell_angle_alpha    110.54253585495134
_cell_angle_beta     95.79501476046597
_cell_angle_gamma    89.49575901902455

_space_group_name_H-M_alt    "P 1"
_space_group_IT_number       1

loop_
  _space_group_symop_operation_xyz
  'x, y, z'

loop_
  _atom_site_type_symbol
  _atom_site_label
  _atom_site_symmetry_multiplicity
  _atom_site_fract_x
  _atom_site_fract_y
  _atom_site_fract_z
  _atom_site_occupancy
  Pr  Pr1       1.0  0.6003469340503216  0.8973732595331967  0.015681004151701927  1.0000
  Pr  Pr2       1.0  0.32055812142789364  0.49318369664251804  0.5574654415249825  1.0000
  P   P1        1.0  0.7194590345025063  0.6139233037829399  0.4257209077477455  1.0000
  P   P2        1.0  0.11781585216522217  0.2287766847293824  0.29911208525300026  1.0000
  H   H1        1.0  0.7108734219800681  0.074001869186759  0.8940541795454919  1.0000
  H   H2        1.0  0.4593446683138609  0.6359516559168696  0.04273102805018425  1.0000
  H   H3        1.0  0.3331157937645912  0.7381882015615702  0.5902882516384125  1.0000
  H   H4        1.0  0.3941023163497448  0.9936804166063666  0.6866034973645583  1.0000
  H   H5        1.0  0.7025643410161138  0.3563854396343231  0.7285054475069046  1.0000
  H   H6        1.0  0.3267124332487583  0.722213389351964  0.994823981076479  1.0000
  H   H7        1.0  0.27088979072868824  0.6411432418972254  0.16812926158308983  1.0000
  H   H8        1.0  0.5764599665999413  0.1203571604564786  0.017568306648172438  1.0000
  H   H9        1.0  0.9500255733728409  0.9651066921651363  0.5788883380591869  1.0000
  H   H10       1.0  0.14357737824320793  0.08208189159631729  0.21157129481434822  1.0000
  C   C1        1.0  0.24807146517559886  0.014234059490263462  0.9749711528420448  1.0000
  C   C2        1.0  0.44131245370954275  0.271191842854023  0.5189128299243748  1.0000
  O   O1        1.0  0.014196127420291305  0.3587481267750263  0.8706551268696785  1.0000
  O   O2        1.0  0.859473099000752  0.5599770732223988  0.19864831119775772  1.0000
  O   O3        1.0  0.5365659748204052  0.5187457880529109  0.8949676565825939  1.0000
  O   O4        1.0  0.9429061233531684  0.14535275171510875  0.29605807294137776  1.0000
  O   O5        1.0  0.5057370025897399  0.44248513045022264  0.8728992009200738  1.0000
  O   O6        1.0  0.13909596297889948  0.08791582332924008  0.595609582029283  1.0000
  O   O7        1.0  0.3854309730231762  0.33148588333278894  0.8976496187970042  1.0000
  O   O8        1.0  0.012369096279144287  0.7414586283266544  0.2689403393305838  1.0000
  O   O9        1.0  0.5410624942742288  0.00851392187178135  0.02885589562356472  1.0000
  O   O10       1.0  0.9617401825380512  0.6477842922322452  0.08777734078466892  1.0000
  O   O11       1.0  0.9905137219466269  0.6639214693568647  0.1691309278830886  1.0000
  O   O12       1.0  0.3624832963105291  0.9106488976394758  0.24177040462382138  1.0000
  O   O13       1.0  0.30332227423787117  0.8316468121483922  0.6385890003293753  1.0000
  O   O14       1.0  0.946210291935131  0.7616256705950946  0.5668889918015338  1.0000
data_image196
_chemical_formula_structural       Pr2P2H10C2O14
_chemical_formula_sum              "Pr2 P2 H10 C2 O14"
_cell_length_a       6.761788999999999
_cell_length_b       7.146483751908908
_cell_length_c       7.843598011864962
_cell_angle_alpha    110.54253585495134
_cell_angle_beta     95.79501476046597
_cell_angle_gamma    89.49575901902455

_space_group_name_H-M_alt    "P 1"
_space_group_IT_number       1

loop_
  _space_group_symop_operation_xyz
  'x, y, z'

loop_
  _atom_site_type_symbol
  _atom_site_label
  _atom_site_symmetry_multiplicity
  _atom_site_fract_x
  _atom_site_fract_y
  _atom_site_fract_z
  _atom_site_occupancy
  Pr  Pr1       1.0  0.40587807539850473  0.13654657918959856  0.2291088728234172  1.0000
  Pr  Pr2       1.0  0.10312408860772848  0.995616227388382  0.8438002467155457  1.0000
  P   P1        1.0  0.7441301047801971  0.13735056668519974  0.1388133391737938  1.0000
  P   P2        1.0  0.7221253290772438  0.14427067420911044  0.5068469569087029  1.0000
  H   H1        1.0  0.48799756658263505  0.8805887997150421  0.41013874975033104  1.0000
  H   H2        1.0  0.46539277769625187  0.9415875216946006  0.5011813808232546  1.0000
  H   H3        1.0  0.5044979732483625  0.4234207160770893  0.8913681507110596  1.0000
  H   H4        1.0  0.8988666534423828  0.2522504641674459  0.3507436276122462  1.0000
  H   H5        1.0  0.7414847007021308  0.5308272801339626  0.0545009970664978  1.0000
  H   H6        1.0  0.3688416387885809  0.9428193191997707  0.9348897812888026  1.0000
  H   H7        1.0  0.8439310733228922  0.016525549814105034  0.2730075605213642  1.0000
  H   H8        1.0  0.9697160981595516  0.1960169724188745  0.5793545390479267  1.0000
  H   H9        1.0  0.3278365731239319  0.10233914107084274  0.9907367192208767  1.0000
  H   H10       1.0  0.43034546822309494  0.16576529294252396  0.25816255435347557  1.0000
  C   C1        1.0  0.6178517760708928  0.8240167303010821  0.32425931468605995  1.0000
  C   C2        1.0  0.10910464311018586  0.5906680272892118  0.7345813657157123  1.0000
  O   O1        1.0  0.534058511024341  0.9486188422888517  0.13342535123229027  1.0000
  O   O2        1.0  0.08981838845647871  0.6284096026793122  0.4407452470622957  1.0000
  O   O3        1.0  0.6092396024614573  0.3604305616900092  0.39691504649817944  1.0000
  O   O4        1.0  0.11907515116035938  0.885098306229338  0.7848883606493473  1.0000
  O   O5        1.0  0.3146197315072641  0.38298273127293214  0.567157767356548  1.0000
  O   O6        1.0  0.3778755394741893  0.4222066504880786  0.7552040405571461  1.0000
  O   O7        1.0  0.2957209087908268  0.2841106606647372  0.8840159825049341  1.0000
  O   O8        1.0  0.8081077532842755  0.7861879954580218  0.3036857880651951  1.0000
  O   O9        1.0  0.5814470839686692  0.3685296433977783  0.9244834557175636  1.0000
  O   O10       1.0  0.9336238042451441  0.6074505539145321  0.15981844952329993  1.0000
  O   O11       1.0  0.7810503779910505  0.9706086595542729  0.02183975768275559  1.0000
  O   O12       1.0  0.2730387654155493  0.3478143117390573  0.5365005787461996  1.0000
  O   O13       1.0  0.6350408410653472  0.06276468932628632  0.26173665281385183  1.0000
  O   O14       1.0  0.1847731297602877  0.8890495316591114  0.7247993281343952  1.0000
data_image197
_chemical_formula_structural       Pr2P2H10C2O14
_chemical_formula_sum              "Pr2 P2 H10 C2 O14"
_cell_length_a       6.761788999999999
_cell_length_b       7.146483751908908
_cell_length_c       7.843598011864962
_cell_angle_alpha    110.54253585495134
_cell_angle_beta     95.79501476046597
_cell_angle_gamma    89.49575901902455

_space_group_name_H-M_alt    "P 1"
_space_group_IT_number       1

loop_
  _space_group_symop_operation_xyz
  'x, y, z'

loop_
  _atom_site_type_symbol
  _atom_site_label
  _atom_site_symmetry_multiplicity
  _atom_site_fract_x
  _atom_site_fract_y
  _atom_site_fract_z
  _atom_site_occupancy
  Pr  Pr1       1.0  0.8003157218918204  0.010017126332968473  0.659510693512857  1.0000
  Pr  Pr2       1.0  0.2791769402101636  0.8660857491195202  0.1586301513016224  1.0000
  P   P1        1.0  0.8048006445169449  0.4917397201061249  0.5360234901309013  1.0000
  P   P2        1.0  0.6780160591006279  0.7479641652025748  0.3207269757986069  1.0000
  H   H1        1.0  0.43981976457871497  0.13755687698721886  0.1943161820527166  1.0000
  H   H2        1.0  0.28209561482071877  0.013520919717848301  0.04488879628479481  1.0000
  H   H3        1.0  0.08350604865700006  0.8305086307227612  0.32472534850239754  1.0000
  H   H4        1.0  0.7577373441308737  0.33933200989849865  0.9838634598709177  1.0000
  H   H5        1.0  0.1849937429651618  0.022679025307297707  0.9597306102514267  1.0000
  H   H6        1.0  0.37332226522266865  0.8416965678334236  0.7004714086651802  1.0000
  H   H7        1.0  0.6778401657938957  0.13987408205866814  0.7859367914497852  1.0000
  H   H8        1.0  0.5373498126864433  0.15114606264978647  0.7513000837061554  1.0000
  H   H9        1.0  0.35651353001594543  0.9402517564594746  0.8709676973521709  1.0000
  H   H10       1.0  0.17853721976280212  0.3202052041888237  0.7292185984551907  1.0000
  C   C1        1.0  0.2738217068836093  0.8109024213626981  0.7339991219341755  1.0000
  C   C2        1.0  0.35693908552639186  0.5381938870996237  0.5565158510580659  1.0000
  O   O1        1.0  0.19272246514447033  0.4646807238459587  0.8137365914881229  1.0000
  O   O2        1.0  0.18939084792509675  0.04890285478904843  0.37998633412644267  1.0000
  O   O3        1.0  0.39984560711309314  0.5051069896776426  0.8628262206912041  1.0000
  O   O4        1.0  0.8685775250196457  0.16864244197495282  0.8909416690003127  1.0000
  O   O5        1.0  0.635755198658444  0.8392104065860622  0.49039974081824766  1.0000
  O   O6        1.0  0.84550391882658  0.8730675717815757  0.752461994998157  1.0000
  O   O7        1.0  0.911212645471096  0.642285272013396  0.8877038974314928  1.0000
  O   O8        1.0  0.18861196655780077  0.5149273229762912  0.6204723711125553  1.0000
  O   O9        1.0  0.8531552241183817  0.7748074326664209  0.45183613523840904  1.0000
  O   O10       1.0  0.05211317093926482  0.20345489727333188  0.7410398757783696  1.0000
  O   O11       1.0  0.1975584696047008  0.7923636757768691  0.8458153591491282  1.0000
  O   O12       1.0  0.1570804474176839  0.22804506111424416  0.239647259702906  1.0000
  O   O13       1.0  0.39256392139941454  0.7120109377428889  0.9983530668541789  1.0000
  O   O14       1.0  0.07098566205240786  0.9312997902743518  0.47973236173857003  1.0000
data_image198
_chemical_formula_structural       Pr2P2H10C2O14
_chemical_formula_sum              "Pr2 P2 H10 C2 O14"
_cell_length_a       6.761788999999999
_cell_length_b       7.146483751908908
_cell_length_c       7.843598011864962
_cell_angle_alpha    110.54253585495134
_cell_angle_beta     95.79501476046597
_cell_angle_gamma    89.49575901902455

_space_group_name_H-M_alt    "P 1"
_space_group_IT_number       1

loop_
  _space_group_symop_operation_xyz
  'x, y, z'

loop_
  _atom_site_type_symbol
  _atom_site_label
  _atom_site_symmetry_multiplicity
  _atom_site_fract_x
  _atom_site_fract_y
  _atom_site_fract_z
  _atom_site_occupancy
  Pr  Pr1       1.0  0.04873937647789717  0.3541019898839295  0.8463121857494116  1.0000
  Pr  Pr2       1.0  0.4776209546253085  0.8897957112640142  0.6184325665235519  1.0000
  P   P1        1.0  0.05702734738588333  0.5241628661751747  0.918924868106842  1.0000
  P   P2        1.0  0.4419121518731117  0.8120692525990307  0.7525196447968483  1.0000
  H   H1        1.0  0.20590324723161757  0.252298753708601  0.5088486082386225  1.0000
  H   H2        1.0  0.15551605448126793  0.5401754444465041  0.4948409367352724  1.0000
  H   H3        1.0  0.38704470079392195  0.10845700278878212  0.9770436584949493  1.0000
  H   H4        1.0  0.1970407161861658  0.4097466585226357  0.39525614386366215  1.0000
  H   H5        1.0  0.9172990387305617  0.5337642449885607  0.13424646854400635  1.0000
  H   H6        1.0  0.8775986786931753  0.7772024138830602  0.38260436058044434  1.0000
  H   H7        1.0  0.49751389399170876  0.589405806735158  0.930085152387619  1.0000
  H   H8        1.0  0.7200048565864563  0.23010741570033133  0.3990393076092005  1.0000
  H   H9        1.0  0.942325234413147  0.22746747732162476  0.7445030584931374  1.0000
  H   H10       1.0  0.15170582756400108  0.8251270726323128  0.6805137097835541  1.0000
  C   C1        1.0  0.29828714579343796  0.6112514603883028  0.9347387012094259  1.0000
  C   C2        1.0  0.9456366414669901  0.5038632862269878  0.8631860250607133  1.0000
  O   O1        1.0  0.9585233449470252  0.46302125230431557  0.6899854280054569  1.0000
  O   O2        1.0  0.24275124771520495  0.7751857782714069  0.7651301822625101  1.0000
  O   O3        1.0  0.8910966427065432  0.8938138831999822  0.1012242641299963  1.0000
  O   O4        1.0  0.6000899914652109  0.6822447816375643  0.2963515347801149  1.0000
  O   O5        1.0  0.16753401001915336  0.5194539266522042  0.2182029286850593  1.0000
  O   O6        1.0  0.4696273524314165  0.887340588029474  0.48624270129948854  1.0000
  O   O7        1.0  0.018829260021448135  0.29426556499674916  0.652120622806251  1.0000
  O   O8        1.0  0.2420696970075369  0.7986081957351416  0.3700345689430833  1.0000
  O   O9        1.0  0.8741826708428562  0.7747935955412686  0.15306564420461655  1.0000
  O   O10       1.0  0.7180439076037146  0.6819055103696883  0.0751186516135931  1.0000
  O   O11       1.0  0.20108707714825869  0.2928765178658068  0.9366140463389456  1.0000
  O   O12       1.0  0.6969758681952953  0.997463884705212  0.1279410645365715  1.0000
  O   O13       1.0  0.5527722872793674  0.5251203440129757  0.9694415796548128  1.0000
  O   O14       1.0  0.44436192652210593  0.021040172316133976  0.5358813860220835  1.0000
data_image199
_chemical_formula_structural       Pr2P2H10C2O14
_chemical_formula_sum              "Pr2 P2 H10 C2 O14"
_cell_length_a       6.761788999999999
_cell_length_b       7.146483751908908
_cell_length_c       7.843598011864962
_cell_angle_alpha    110.54253585495134
_cell_angle_beta     95.79501476046597
_cell_angle_gamma    89.49575901902455

_space_group_name_H-M_alt    "P 1"
_space_group_IT_number       1

loop_
  _space_group_symop_operation_xyz
  'x, y, z'

loop_
  _atom_site_type_symbol
  _atom_site_label
  _atom_site_symmetry_multiplicity
  _atom_site_fract_x
  _atom_site_fract_y
  _atom_site_fract_z
  _atom_site_occupancy
  Pr  Pr1       1.0  0.3640031171962619  0.5430265441536903  0.5458077825605869  1.0000
  Pr  Pr2       1.0  0.8101940779015422  0.3260771855711937  0.1870617475360632  1.0000
  P   P1        1.0  0.4806959107518196  0.7710489928722382  0.7518439367413521  1.0000
  P   P2        1.0  0.9338250011205673  0.4296631406759843  0.2537013031542301  1.0000
  H   H1        1.0  0.1919292053207755  0.1764814332127571  0.04184016608633101  1.0000
  H   H2        1.0  0.660068922676146  0.6528268186375499  0.5694253090769053  1.0000
  H   H3        1.0  0.7018947321921587  0.01189977303147316  0.7778073810040951  1.0000
  H   H4        1.0  0.380340613424778  0.40034448890946805  0.206955852379906  1.0000
  H   H5        1.0  0.9978986727073789  0.8034363035112619  0.3384793624281883  1.0000
  H   H6        1.0  0.35134795121848583  0.5451157577335835  0.14513831213116646  1.0000
  H   H7        1.0  0.6998770963400602  0.7476518768817186  0.02811034396290779  1.0000
  H   H8        1.0  0.2859012745320797  0.5591200061608106  0.8159785041352734  1.0000
  H   H9        1.0  0.8574357740581036  0.3931409902870655  0.30117394402623177  1.0000
  H   H10       1.0  0.6636335477232933  0.18177583813667297  0.4764915555715561  1.0000
  C   C1        1.0  0.15701460931450129  0.3608691608533263  0.7595519814640284  1.0000
  C   C2        1.0  0.9931725913193077  0.09666935540735722  0.09004157595336437  1.0000
  O   O1        1.0  0.5128991596866399  0.9303139913827181  0.9505455195903778  1.0000
  O   O2        1.0  0.23433044855482876  0.448253917042166  0.1876414273865521  1.0000
  O   O3        1.0  0.9304461227729917  0.7356952609861764  0.5301169622689486  1.0000
  O   O4        1.0  0.15282457484863698  0.32402923866175115  0.4072045737411827  1.0000
  O   O5        1.0  0.6108778625493869  0.7478617055458017  0.8874763744970551  1.0000
  O   O6        1.0  0.11485231760889292  0.27486107079312205  0.9071769565343857  1.0000
  O   O7        1.0  0.6647456623613834  0.6225778153166175  0.5941653731279075  1.0000
  O   O8        1.0  0.8770537711679935  0.6657956256531179  0.9028530395589769  1.0000
  O   O9        1.0  0.06946271285414696  0.6614914084784687  0.0021024569869041443  1.0000
  O   O10       1.0  0.8901827360969037  0.9984564546030015  0.7929193591699004  1.0000
  O   O11       1.0  0.3093456127680838  0.38067170372232795  0.009848374407738447  1.0000
  O   O12       1.0  0.4910359759815037  0.9508704366744496  0.11436965060420334  1.0000
  O   O13       1.0  0.6174921290948987  0.6638304935768247  0.7122217677533627  1.0000
  O   O14       1.0  0.4107471869792789  0.5305257479194552  0.34813062351895496  1.0000
data_image200
_chemical_formula_structural       Pr2P2H10C2O14
_chemical_formula_sum              "Pr2 P2 H10 C2 O14"
_cell_length_a       6.761788999999999
_cell_length_b       7.146483751908908
_cell_length_c       7.843598011864962
_cell_angle_alpha    110.54253585495134
_cell_angle_beta     95.79501476046597
_cell_angle_gamma    89.49575901902455

_space_group_name_H-M_alt    "P 1"
_space_group_IT_number       1

loop_
  _space_group_symop_operation_xyz
  'x, y, z'

loop_
  _atom_site_type_symbol
  _atom_site_label
  _atom_site_symmetry_multiplicity
  _atom_site_fract_x
  _atom_site_fract_y
  _atom_site_fract_z
  _atom_site_occupancy
  Pr  Pr1       1.0  0.938119001686573  0.31691556284204125  0.7965182941406965  1.0000
  Pr  Pr2       1.0  0.23926366120576859  0.9293800778687  0.5671597495675087  1.0000
  P   P1        1.0  0.6222163811326027  0.7093702778220177  0.08948016166687012  1.0000
  P   P2        1.0  0.5080664902925491  0.6147993253689492  0.7487507797777653  1.0000
  H   H1        1.0  0.5671843360178173  0.4554095957428217  0.1106137316673994  1.0000
  H   H2        1.0  0.6889966111630201  0.47741322312504053  0.2847592569887638  1.0000
  H   H3        1.0  0.5288721946999431  0.4443327747285366  0.5073583126068115  1.0000
  H   H4        1.0  0.42085843719542027  0.7828349366318434  0.5333104890232789  1.0000
  H   H5        1.0  0.609998700208962  0.37190549448132515  0.1653738021850586  1.0000
  H   H6        1.0  0.5289743468165398  0.6871944526210427  0.8058864939957857  1.0000
  H   H7        1.0  0.8977690190076828  0.5009029898792505  0.32414328679442406  1.0000
  H   H8        1.0  0.3560122810304165  0.7143567535094917  0.5428400842938572  1.0000
  H   H9        1.0  0.33367690816521645  0.5179467089474201  0.028133254498243332  1.0000
  H   H10       1.0  0.05981084331870079  0.4134650379419327  0.6876475512981415  1.0000
  C   C1        1.0  0.5710700950585306  0.25064322631806135  0.24841019697487354  1.0000
  C   C2        1.0  0.8910271050408483  0.9561518784612417  0.4828438931144774  1.0000
  O   O1        1.0  0.858969785971567  0.1767083127051592  0.66054268181324  1.0000
  O   O2        1.0  0.20091133401729167  0.8886035168543458  0.8681046925485134  1.0000
  O   O3        1.0  0.14971518842503428  0.9146984316666931  0.22419480234384537  1.0000
  O   O4        1.0  0.6468551624566317  0.2613484018947929  0.3940375184174627  1.0000
  O   O5        1.0  0.3677396478597075  0.4770062556490302  0.7366630118849571  1.0000
  O   O6        1.0  0.3870387813076377  0.5565730100497603  0.25117973517626524  1.0000
  O   O7        1.0  0.22344037145376205  0.87321557989344  0.2586386031471193  1.0000
  O   O8        1.0  0.9852687064558268  0.8839015492703766  0.6871440629474819  1.0000
  O   O9        1.0  0.13123981188982725  0.6089015863835812  0.35099977627396584  1.0000
  O   O10       1.0  0.25312313507311046  0.10914053674787283  0.93643911217805  1.0000
  O   O11       1.0  0.8134599248878658  0.16822158871218562  0.5238394204061478  1.0000
  O   O12       1.0  0.6807093394454569  0.4529950224678032  0.31695761322043836  1.0000
  O   O13       1.0  0.39087808318436146  0.9638050403445959  0.8617019606754184  1.0000
  O   O14       1.0  0.4528884014580399  0.29560253815725446  0.637389216281008  1.0000
