data_image0
_chemical_formula_structural       Cu2C6N4O10
_chemical_formula_sum              "Cu2 C6 N4 O10"
_cell_length_a       6.950721000000001
_cell_length_b       7.113486077992492
_cell_length_c       8.6539786637408
_cell_angle_alpha    105.43300670560022
_cell_angle_beta     90.64948243757532
_cell_angle_gamma    112.19062950933201

_space_group_name_H-M_alt    "P 1"
_space_group_IT_number       1

loop_
  _space_group_symop_operation_xyz
  'x, y, z'

loop_
  _atom_site_type_symbol
  _atom_site_label
  _atom_site_symmetry_multiplicity
  _atom_site_fract_x
  _atom_site_fract_y
  _atom_site_fract_z
  _atom_site_occupancy
  Cu  Cu1       1.0  0.8888600000000002  0.8189359999999998  0.8399660000000001  1.0000
  Cu  Cu2       1.0  0.11113999999999997  0.18106399999999995  0.160034  1.0000
  C   C1        1.0  0.21675000000000003  0.191164  0.840118  1.0000
  C   C2        1.0  0.78325  0.8088359999999999  0.159882  1.0000
  C   C3        1.0  0.789283  0.16961100000000004  0.9952190000000002  1.0000
  C   C4        1.0  0.21071699999999993  0.8303889999999999  0.004781000000000006  1.0000
  C   C5        1.0  0.7170760000000002  0.4170189999999999  0.583403  1.0000
  C   C6        1.0  0.28292399999999995  0.5829809999999999  0.416597  1.0000
  N   N1        1.0  0.820127  0.286719  0.5658090000000001  1.0000
  N   N2        1.0  0.179873  0.713281  0.43419100000000005  1.0000
  N   N3        1.0  0.6380520000000001  0.237941  0.458744  1.0000
  N   N4        1.0  0.36194799999999994  0.7620589999999999  0.541256  1.0000
  O   O1        1.0  0.13484  0.05394799999999999  0.719747  1.0000
  O   O2        1.0  0.8651600000000002  0.9460519999999999  0.28025300000000003  1.0000
  O   O3        1.0  0.686643  0.03810199999999998  0.875885  1.0000
  O   O4        1.0  0.31335700000000005  0.961898  0.12411500000000002  1.0000
  O   O5        1.0  0.6944720000000001  0.6658289999999999  0.04384400000000002  1.0000
  O   O6        1.0  0.3055280000000001  0.33417099999999994  0.956156  1.0000
  O   O7        1.0  0.140495  0.678265  0.8899280000000003  1.0000
  O   O8        1.0  0.859505  0.321735  0.110072  1.0000
  O   O9        1.0  0.699383  0.582397  0.65865  1.0000
  O   O10       1.0  0.300617  0.41760299999999995  0.34135  1.0000
data_image1
_chemical_formula_structural       Cu2C6N4O10
_chemical_formula_sum              "Cu2 C6 N4 O10"
_cell_length_a       6.950721000000001
_cell_length_b       7.113486077992492
_cell_length_c       8.6539786637408
_cell_angle_alpha    105.43300670560022
_cell_angle_beta     90.64948243757532
_cell_angle_gamma    112.19062950933201

_space_group_name_H-M_alt    "P 1"
_space_group_IT_number       1

loop_
  _space_group_symop_operation_xyz
  'x, y, z'

loop_
  _atom_site_type_symbol
  _atom_site_label
  _atom_site_symmetry_multiplicity
  _atom_site_fract_x
  _atom_site_fract_y
  _atom_site_fract_z
  _atom_site_occupancy
  Cu  Cu1       1.0  0.8620845346223782  0.7988486061273087  0.7721212987455857  1.0000
  Cu  Cu2       1.0  0.14562157583509466  0.1868936841487531  0.23462906463457833  1.0000
  C   C1        1.0  0.2027733555250474  0.12123994905297002  0.7410698848630897  1.0000
  C   C2        1.0  0.8114124016070277  0.7689678378177123  0.19277633010857714  1.0000
  C   C3        1.0  0.7791808185039342  0.17811560831662823  0.9668923531147506  1.0000
  C   C4        1.0  0.2251190584804621  0.7978484643273646  0.98845149160131  1.0000
  C   C5        1.0  0.7078774473026137  0.4849725330548196  0.6558398913561039  1.0000
  C   C6        1.0  0.2907461245051493  0.645487978560036  0.4321300994584542  1.0000
  N   N1        1.0  0.8523201603121171  0.3685505345454611  0.645617128310057  1.0000
  N   N2        1.0  0.15489364771753125  0.7283482278192849  0.3946109612161695  1.0000
  N   N3        1.0  0.7460489648081059  0.34819799211348923  0.5044796806954966  1.0000
  N   N4        1.0  0.3188773630443982  0.8174794195415009  0.542502295302102  1.0000
  O   O1        1.0  0.04656730943897067  0.0068169979578512315  0.6395221519415012  1.0000
  O   O2        1.0  0.8533086369078369  0.9312421466599188  0.30453238556089396  1.0000
  O   O3        1.0  0.6674513173983544  0.03120236978571067  0.8554594221635168  1.0000
  O   O4        1.0  0.37898559123901465  0.9626385227966403  0.059693660657499766  1.0000
  O   O5        1.0  0.7484333854136703  0.6451178508226975  0.0635994792534355  1.0000
  O   O6        1.0  0.33876738051914296  0.21916643506408048  0.8407361085247811  1.0000
  O   O7        1.0  0.06555228536491597  0.6546905851912526  0.945646663467569  1.0000
  O   O8        1.0  0.8730290294381322  0.33195575268827593  0.08359908345916371  1.0000
  O   O9        1.0  0.5932098888485123  0.5792146361512344  0.728124870499743  1.0000
  O   O10       1.0  0.32721072470785445  0.46697055083312605  0.39188069985134827  1.0000
data_image2
_chemical_formula_structural       Cu2C6N4O10
_chemical_formula_sum              "Cu2 C6 N4 O10"
_cell_length_a       6.950721000000001
_cell_length_b       7.113486077992492
_cell_length_c       8.6539786637408
_cell_angle_alpha    105.43300670560022
_cell_angle_beta     90.64948243757532
_cell_angle_gamma    112.19062950933201

_space_group_name_H-M_alt    "P 1"
_space_group_IT_number       1

loop_
  _space_group_symop_operation_xyz
  'x, y, z'

loop_
  _atom_site_type_symbol
  _atom_site_label
  _atom_site_symmetry_multiplicity
  _atom_site_fract_x
  _atom_site_fract_y
  _atom_site_fract_z
  _atom_site_occupancy
  Cu  Cu1       1.0  0.9259856650454328  0.9311899344341102  0.803173375800184  1.0000
  Cu  Cu2       1.0  0.1622620744470978  0.18768936792164578  0.29681031641916644  1.0000
  C   C1        1.0  0.15744528198680616  0.08246151925151904  0.6397444024823048  1.0000
  C   C2        1.0  0.733202766091552  0.7701501318133299  0.20992147929037236  1.0000
  C   C3        1.0  0.7381516419349294  0.09323165572614045  0.9160519034560496  1.0000
  C   C4        1.0  0.3405983524373528  0.7860607365178335  0.020418401168603564  1.0000
  C   C5        1.0  0.6596887019736137  0.6873515393398485  0.807313941494208  1.0000
  C   C6        1.0  0.3641336919188137  0.6844063117483926  0.4266575862822051  1.0000
  N   N1        1.0  0.7406562915110595  0.22653351708207337  0.43956776113987767  1.0000
  N   N2        1.0  0.18601623712984627  0.755647124521609  0.35719146063715074  1.0000
  N   N3        1.0  0.5910866388603399  0.10208344524976648  0.3585649555889935  1.0000
  N   N4        1.0  0.23717713698303947  0.7679557639750416  0.5042805105607231  1.0000
  O   O1        1.0  0.01985669609722117  0.007568915522255684  0.5456448896520075  1.0000
  O   O2        1.0  0.8868223340691731  0.9448019954322555  0.23422967396497477  1.0000
  O   O3        1.0  0.6180376748213612  0.020582753600847558  0.7990094950444119  1.0000
  O   O4        1.0  0.46551777638146064  0.8510924144653175  0.13872949433733636  1.0000
  O   O5        1.0  0.6133996396849014  0.5931684595045995  0.16835887645216985  1.0000
  O   O6        1.0  0.2740718108328858  0.1795375601477704  0.7661338033880982  1.0000
  O   O7        1.0  0.20447593344786585  0.6672915832830015  0.9179466744752707  1.0000
  O   O8        1.0  0.8327695232535894  0.16857684867245623  0.05710039592586644  1.0000
  O   O9        1.0  0.5361782773170147  0.599200161629794  0.8673379155215051  1.0000
  O   O10       1.0  0.4175211336006305  0.5437089854675312  0.38647087384561163  1.0000
data_image3
_chemical_formula_structural       Cu2C6N4O10
_chemical_formula_sum              "Cu2 C6 N4 O10"
_cell_length_a       6.950721000000001
_cell_length_b       7.113486077992492
_cell_length_c       8.6539786637408
_cell_angle_alpha    105.43300670560022
_cell_angle_beta     90.64948243757532
_cell_angle_gamma    112.19062950933201

_space_group_name_H-M_alt    "P 1"
_space_group_IT_number       1

loop_
  _space_group_symop_operation_xyz
  'x, y, z'

loop_
  _atom_site_type_symbol
  _atom_site_label
  _atom_site_symmetry_multiplicity
  _atom_site_fract_x
  _atom_site_fract_y
  _atom_site_fract_z
  _atom_site_occupancy
  Cu  Cu1       1.0  0.012816518457701598  0.9226403287004341  0.79412483759231  1.0000
  Cu  Cu2       1.0  0.06491832257485831  0.16310831713982163  0.3046676426553032  1.0000
  C   C1        1.0  0.18523792415974683  0.13877210571279242  0.6445333053433774  1.0000
  C   C2        1.0  0.8323736443428741  0.7590421800594195  0.2229776751099779  1.0000
  C   C3        1.0  0.7797134681762721  0.20995910565103407  0.8925113563382657  1.0000
  C   C4        1.0  0.2981153131379335  0.7233614066512116  0.004501566470612427  1.0000
  C   C5        1.0  0.7472502891459228  0.7499910229331781  0.7256553342492749  1.0000
  C   C6        1.0  0.1945555769906272  0.45614000108560365  0.4299168150289218  1.0000
  N   N1        1.0  0.588117946607665  0.25650435972393354  0.39590091946220285  1.0000
  N   N2        1.0  0.1870010660971695  0.6720603806868788  0.48383253886502475  1.0000
  N   N3        1.0  0.6133247669441559  0.2834045231072522  0.5281810561770582  1.0000
  N   N4        1.0  0.023893786988444514  0.5136650364455242  0.49033559186709164  1.0000
  O   O1        1.0  0.10011177907663721  0.09103077056088629  0.5238200374464012  1.0000
  O   O2        1.0  0.8944834377685197  0.8638143883806287  0.1336680540380226  1.0000
  O   O3        1.0  0.6960796759149739  0.13553300014180514  0.7565466347588274  1.0000
  O   O4        1.0  0.3968219295072151  0.7776862175953732  0.122917070544477  1.0000
  O   O5        1.0  0.7689213472726751  0.6327794691432267  0.2920813498042869  1.0000
  O   O6        1.0  0.3230253711105099  0.26124788183429887  0.7821056442189255  1.0000
  O   O7        1.0  0.2148036567996839  0.7436027615654672  0.8971492999290653  1.0000
  O   O8        1.0  0.8126427975793754  0.2995010830842429  0.030307256588478614  1.0000
  O   O9        1.0  0.6150251861109162  0.6064563610348827  0.7157702935729695  1.0000
  O   O10       1.0  0.3556869283687605  0.45532168448203764  0.49734396401509035  1.0000
data_image4
_chemical_formula_structural       Cu2C6N4O10
_chemical_formula_sum              "Cu2 C6 N4 O10"
_cell_length_a       6.950721000000001
_cell_length_b       7.113486077992492
_cell_length_c       8.6539786637408
_cell_angle_alpha    105.43300670560022
_cell_angle_beta     90.64948243757532
_cell_angle_gamma    112.19062950933201

_space_group_name_H-M_alt    "P 1"
_space_group_IT_number       1

loop_
  _space_group_symop_operation_xyz
  'x, y, z'

loop_
  _atom_site_type_symbol
  _atom_site_label
  _atom_site_symmetry_multiplicity
  _atom_site_fract_x
  _atom_site_fract_y
  _atom_site_fract_z
  _atom_site_occupancy
  Cu  Cu1       1.0  0.2149676627097692  0.9385138772067789  0.8063001596200206  1.0000
  Cu  Cu2       1.0  0.9552563089851106  0.15711398339319227  0.3058719427272488  1.0000
  C   C1        1.0  0.23341014108006  0.2538894234046641  0.755230677962766  1.0000
  C   C2        1.0  0.7014916938055987  0.695858637338748  0.22323966407958296  1.0000
  C   C3        1.0  0.8046722062930597  0.23122782099164535  0.7968207033542343  1.0000
  C   C4        1.0  0.24619162314030946  0.6786963637815352  0.9870903968838552  1.0000
  C   C5        1.0  0.7579819872983905  0.7169284811036299  0.8504566466704093  1.0000
  C   C6        1.0  0.27050938255069223  0.40938349409002106  0.32316030566108916  1.0000
  N   N1        1.0  0.6133223451932704  0.08399257149384887  0.413078583454434  1.0000
  N   N2        1.0  0.9850347975699344  0.7021059221251602  0.4615048895639385  1.0000
  N   N3        1.0  0.5144422990693989  0.03850210145988466  0.5135780001589937  1.0000
  N   N4        1.0  0.9965749510648964  0.5646208481052238  0.4943965111611953  1.0000
  O   O1        1.0  0.24405518391229827  0.1641358900070071  0.6004621598821043  1.0000
  O   O2        1.0  0.7878832978248025  0.8313545858764946  0.15488052319723222  1.0000
  O   O3        1.0  0.8685688838397317  0.13886347019927078  0.679512894206159  1.0000
  O   O4        1.0  0.3869158291498909  0.7394243460512179  0.10006648763954652  1.0000
  O   O5        1.0  0.6266110672690363  0.5691939936187289  0.3003303335088726  1.0000
  O   O6        1.0  0.21485411392087742  0.3700333124509675  0.8684894573102173  1.0000
  O   O7        1.0  0.16161910808817395  0.6725286575428937  0.8422844846568034  1.0000
  O   O8        1.0  0.7927835279032273  0.3618812091779615  0.901640193293518  1.0000
  O   O9        1.0  0.6603159266684571  0.7873530176415057  0.796211086473952  1.0000
  O   O10       1.0  0.34580404542787085  0.5248619269620005  0.4601366857643312  1.0000
data_image5
_chemical_formula_structural       Cu2C6N4O10
_chemical_formula_sum              "Cu2 C6 N4 O10"
_cell_length_a       6.950721000000001
_cell_length_b       7.113486077992492
_cell_length_c       8.6539786637408
_cell_angle_alpha    105.43300670560022
_cell_angle_beta     90.64948243757532
_cell_angle_gamma    112.19062950933201

_space_group_name_H-M_alt    "P 1"
_space_group_IT_number       1

loop_
  _space_group_symop_operation_xyz
  'x, y, z'

loop_
  _atom_site_type_symbol
  _atom_site_label
  _atom_site_symmetry_multiplicity
  _atom_site_fract_x
  _atom_site_fract_y
  _atom_site_fract_z
  _atom_site_occupancy
  Cu  Cu1       1.0  0.2610836756449233  0.9469823211189653  0.8269753034652788  1.0000
  Cu  Cu2       1.0  0.9522450375312256  0.1287032011414427  0.31324810015777793  1.0000
  C   C1        1.0  0.33439409649293406  0.24646498927766877  0.8119245625972062  1.0000
  C   C2        1.0  0.6503579398706454  0.6915794322007353  0.1324595610627677  1.0000
  C   C3        1.0  0.8982890584619947  0.2990330673310649  0.7651339333472813  1.0000
  C   C4        1.0  0.21133572683006063  0.7396862644368692  0.9957174082973591  1.0000
  C   C5        1.0  0.7814844319365933  0.7825773765627925  0.8564360052027532  1.0000
  C   C6        1.0  0.2168638569589734  0.3138543409810638  0.43024629099695394  1.0000
  N   N1        1.0  0.515894039378753  0.1211641904198906  0.4470185889234304  1.0000
  N   N2        1.0  0.9865946924009006  0.7494084853117354  0.4387422197426152  1.0000
  N   N3        1.0  0.42045228739939244  0.9495574253435579  0.39638494540261754  1.0000
  N   N4        1.0  0.9276772407384852  0.6374083940644613  0.5145091167469835  1.0000
  O   O1        1.0  0.31302882073122984  0.12398957149891639  0.6790607500629287  1.0000
  O   O2        1.0  0.6961106211387618  0.8690934118188065  0.17609976401001637  1.0000
  O   O3        1.0  0.011737955766398578  0.22585737161929595  0.6781489019710227  1.0000
  O   O4        1.0  0.20198119175573612  0.7192667716268272  0.12268167799102363  1.0000
  O   O5        1.0  0.6066344885107569  0.5240330538942852  0.15266424654734911  1.0000
  O   O6        1.0  0.3931185236871933  0.3660397975783159  0.9384888389293649  1.0000
  O   O7        1.0  0.109285063051851  0.6722103802297197  0.8553387787526602  1.0000
  O   O8        1.0  0.7528392396644615  0.32303642676299743  0.8035386678141957  1.0000
  O   O9        1.0  0.659912332159791  0.8288067010928847  0.8055450838603204  1.0000
  O   O10       1.0  0.34597005509517115  0.4703751428963453  0.41611912481403807  1.0000
data_image6
_chemical_formula_structural       Cu2C6N4O10
_chemical_formula_sum              "Cu2 C6 N4 O10"
_cell_length_a       6.950721000000001
_cell_length_b       7.113486077992492
_cell_length_c       8.6539786637408
_cell_angle_alpha    105.43300670560022
_cell_angle_beta     90.64948243757532
_cell_angle_gamma    112.19062950933201

_space_group_name_H-M_alt    "P 1"
_space_group_IT_number       1

loop_
  _space_group_symop_operation_xyz
  'x, y, z'

loop_
  _atom_site_type_symbol
  _atom_site_label
  _atom_site_symmetry_multiplicity
  _atom_site_fract_x
  _atom_site_fract_y
  _atom_site_fract_z
  _atom_site_occupancy
  Cu  Cu1       1.0  0.2616184589486372  0.8739120522991942  0.813661292703782  1.0000
  Cu  Cu2       1.0  0.030930790838068784  0.10617298870015984  0.3039543822445656  1.0000
  C   C1        1.0  0.32371995338761833  0.2461182911032831  0.8316234617700022  1.0000
  C   C2        1.0  0.6670611105458005  0.741036381658503  0.1387144247504576  1.0000
  C   C3        1.0  0.8135267877617206  0.2860952106940406  0.7205080546833126  1.0000
  C   C4        1.0  0.1227601720900468  0.7130633601348288  0.9794129117919812  1.0000
  C   C5        1.0  0.6165223683214338  0.7756919621759262  0.8627389012937413  1.0000
  C   C6        1.0  0.20047692641560172  0.3877018162791988  0.4333514440729235  1.0000
  N   N1        1.0  0.6396769228428898  0.20261767020415422  0.3792596640077106  1.0000
  N   N2        1.0  0.9281562338948767  0.6931618453721337  0.5186385734114936  1.0000
  N   N3        1.0  0.4922561651001124  0.09243213748156016  0.4164167609771452  1.0000
  N   N4        1.0  0.8535268546465119  0.5602280160558188  0.5674192852514222  1.0000
  O   O1        1.0  0.2882763399105914  0.11277432895681395  0.7138174631350279  1.0000
  O   O2        1.0  0.7738982709789674  0.9453246039858691  0.17640148544214865  1.0000
  O   O3        1.0  0.9060612550483438  0.1580541372286571  0.6665268584455657  1.0000
  O   O4        1.0  0.034093357925076895  0.7357117342469721  0.09247830392800703  1.0000
  O   O5        1.0  0.6051461726799566  0.568807746442625  0.13739235975861916  1.0000
  O   O6        1.0  0.34774976537356733  0.4148622146653227  0.9266293754196429  1.0000
  O   O7        1.0  0.21336957246852897  0.6323334325408817  0.880071947577007  1.0000
  O   O8        1.0  0.7409117901134404  0.4095749154821693  0.8058159374740775  1.0000
  O   O9        1.0  0.6974532075803479  0.9367792874375981  0.8375131201753439  1.0000
  O   O10       1.0  0.37522086563288304  0.44912864449397627  0.42453393370222847  1.0000
data_image7
_chemical_formula_structural       Cu2C6N4O10
_chemical_formula_sum              "Cu2 C6 N4 O10"
_cell_length_a       6.950721000000001
_cell_length_b       7.113486077992492
_cell_length_c       8.6539786637408
_cell_angle_alpha    105.43300670560022
_cell_angle_beta     90.64948243757532
_cell_angle_gamma    112.19062950933201

_space_group_name_H-M_alt    "P 1"
_space_group_IT_number       1

loop_
  _space_group_symop_operation_xyz
  'x, y, z'

loop_
  _atom_site_type_symbol
  _atom_site_label
  _atom_site_symmetry_multiplicity
  _atom_site_fract_x
  _atom_site_fract_y
  _atom_site_fract_z
  _atom_site_occupancy
  Cu  Cu1       1.0  0.3007521621088385  0.9310405319233492  0.7713634651782637  1.0000
  Cu  Cu2       1.0  0.04042876809559379  0.12196616546046904  0.3212879006104379  1.0000
  C   C1        1.0  0.16245082969808405  0.14991099116713424  0.7745777176381066  1.0000
  C   C2        1.0  0.7120126416430854  0.75179984442712  0.20700980497603072  1.0000
  C   C3        1.0  0.7570758016043498  0.26078372077568296  0.7585610929543743  1.0000
  C   C4        1.0  0.23721972013180445  0.7312662255283591  0.9991096030563731  1.0000
  C   C5        1.0  0.5826612065587252  0.9472529311156349  0.8180444866117351  1.0000
  C   C6        1.0  0.2628268793917505  0.33069937218159323  0.41966631989797304  1.0000
  N   N1        1.0  0.49958732176590265  0.10035246170776894  0.25097522639953246  1.0000
  N   N2        1.0  0.010165495390004739  0.5481130713969379  0.47775083669463536  1.0000
  N   N3        1.0  0.5946444105752321  0.1616450904462598  0.37359000326221836  1.0000
  N   N4        1.0  0.9139823248262606  0.6155675632692605  0.5509057051389232  1.0000
  O   O1        1.0  0.16492995841693123  0.13188669147496898  0.6321285958916578  1.0000
  O   O2        1.0  0.8791228674777551  0.8608083632743433  0.196326441701058  1.0000
  O   O3        1.0  0.8162502760551252  0.21512996643493804  0.6294737441932088  1.0000
  O   O4        1.0  0.22641226650159993  0.8064648281941473  0.14703066389737782  1.0000
  O   O5        1.0  0.5423424133793324  0.665004770468779  0.23976005333167763  1.0000
  O   O6        1.0  0.09330701713433939  0.1155846734661912  0.9047795796073334  1.0000
  O   O7        1.0  0.22575355413890258  0.6244175495575794  0.8680612382218745  1.0000
  O   O8        1.0  0.7227631169465719  0.35663045288036554  0.8794348366044684  1.0000
  O   O9        1.0  0.6769611157236174  0.9234736383165894  0.9237676701709736  1.0000
  O   O10       1.0  0.37103798267615473  0.46471794749402506  0.53067341125148  1.0000
data_image8
_chemical_formula_structural       Cu2C6N4O10
_chemical_formula_sum              "Cu2 C6 N4 O10"
_cell_length_a       6.950721000000001
_cell_length_b       7.113486077992492
_cell_length_c       8.6539786637408
_cell_angle_alpha    105.43300670560022
_cell_angle_beta     90.64948243757532
_cell_angle_gamma    112.19062950933201

_space_group_name_H-M_alt    "P 1"
_space_group_IT_number       1

loop_
  _space_group_symop_operation_xyz
  'x, y, z'

loop_
  _atom_site_type_symbol
  _atom_site_label
  _atom_site_symmetry_multiplicity
  _atom_site_fract_x
  _atom_site_fract_y
  _atom_site_fract_z
  _atom_site_occupancy
  Cu  Cu1       1.0  0.373072635187337  0.011127059581266474  0.7726638594626025  1.0000
  Cu  Cu2       1.0  0.06588274846444248  0.10191186048035396  0.30840037517135854  1.0000
  C   C1        1.0  0.1251336880119088  0.08008622706697223  0.7707374626887316  1.0000
  C   C2        1.0  0.6655795370649635  0.7634171202387362  0.3399959337060939  1.0000
  C   C3        1.0  0.7668212886758503  0.3846183331524295  0.7673751767335625  1.0000
  C   C4        1.0  0.08006211884855607  0.5237748261607159  0.9929491372238894  1.0000
  C   C5        1.0  0.4393826851441777  0.7489031977899474  0.766285638600314  1.0000
  C   C6        1.0  0.2914010208630279  0.3042477210783485  0.4450436913552096  1.0000
  N   N1        1.0  0.607767635383858  0.3619399820836384  0.24659390158068228  1.0000
  N   N2        1.0  0.17366715209487146  0.7338820057917727  0.4395415345079564  1.0000
  N   N3        1.0  0.5171241762575913  0.20822848485024534  0.2744309080793952  1.0000
  N   N4        1.0  0.09221539131320111  0.6495514142816882  0.5237495534718098  1.0000
  O   O1        1.0  0.14780803974118506  0.06315422697508848  0.6367201101450348  1.0000
  O   O2        1.0  0.8499991957149708  0.8540502570219871  0.29860302381956655  1.0000
  O   O3        1.0  0.7661505219893651  0.2640792155007316  0.644127569655097  1.0000
  O   O4        1.0  0.08678236144186724  0.6471243502956622  0.12227300851107402  1.0000
  O   O5        1.0  0.49022229550787066  0.6633110637433041  0.33870401958526203  1.0000
  O   O6        1.0  0.067380070854989  0.11130616430665392  0.8915519955487302  1.0000
  O   O7        1.0  0.13792468483356624  0.4741361820833233  0.8597200074151659  1.0000
  O   O8        1.0  0.7242226156136384  0.44681663601360233  0.9043335314985655  1.0000
  O   O9        1.0  0.6000595295958621  0.754881370854587  0.8036791680018041  1.0000
  O   O10       1.0  0.3922728314465479  0.45451400259537833  0.5640948567261809  1.0000
data_image9
_chemical_formula_structural       Cu2C6N4O10
_chemical_formula_sum              "Cu2 C6 N4 O10"
_cell_length_a       6.950721000000001
_cell_length_b       7.113486077992492
_cell_length_c       8.6539786637408
_cell_angle_alpha    105.43300670560022
_cell_angle_beta     90.64948243757532
_cell_angle_gamma    112.19062950933201

_space_group_name_H-M_alt    "P 1"
_space_group_IT_number       1

loop_
  _space_group_symop_operation_xyz
  'x, y, z'

loop_
  _atom_site_type_symbol
  _atom_site_label
  _atom_site_symmetry_multiplicity
  _atom_site_fract_x
  _atom_site_fract_y
  _atom_site_fract_z
  _atom_site_occupancy
  Cu  Cu1       1.0  0.3703126307604494  0.005132320038754745  0.9254188041198965  1.0000
  Cu  Cu2       1.0  0.0742384793949839  0.07832049685030308  0.307193489925193  1.0000
  C   C1        1.0  0.9297243861212525  0.962630972916159  0.7396086743952044  1.0000
  C   C2        1.0  0.7299794598366129  0.7929687589884807  0.38747367471549804  1.0000
  C   C3        1.0  0.7366385333062581  0.4397481346631864  0.679671187557684  1.0000
  C   C4        1.0  0.138050949090676  0.47863009141150403  0.9821352053995773  1.0000
  C   C5        1.0  0.5551454528266873  0.8485003170714186  0.9004187652046709  1.0000
  C   C6        1.0  0.30474934339753523  0.3103468362378408  0.41906178818288614  1.0000
  N   N1        1.0  0.6165239142648898  0.37377246372427647  0.11829058707462725  1.0000
  N   N2        1.0  0.22673710138731137  0.9078380380598028  0.45400905176598194  1.0000
  N   N3        1.0  0.5325301254314333  0.2109401117410974  0.13882436771989967  1.0000
  N   N4        1.0  0.1681548305282063  0.725758504779465  0.4095399528770489  1.0000
  O   O1        1.0  0.91444915989612  0.03373624937999933  0.6229817890132273  1.0000
  O   O2        1.0  0.8234673925081958  0.8362171816742849  0.25569042140601794  1.0000
  O   O3        1.0  0.7833685200706199  0.3689058616710379  0.5483948387827566  1.0000
  O   O4        1.0  0.03362484045032497  0.39848501991940893  0.08517481253879758  1.0000
  O   O5        1.0  0.5791754787614903  0.7329032302946871  0.46094119003760164  1.0000
  O   O6        1.0  0.057247478559400634  0.9146990562566041  0.7993424435959506  1.0000
  O   O7        1.0  0.20924331821274153  0.5338556508742477  0.8716587605383134  1.0000
  O   O8        1.0  0.7163510783654325  0.5434654738599466  0.8041412593538142  1.0000
  O   O9        1.0  0.5884329724175186  0.8116568950103153  0.7697418126002004  1.0000
  O   O10       1.0  0.3836867473746569  0.42633553966354365  0.5445529983873003  1.0000
data_image10
_chemical_formula_structural       Cu2C6N4O10
_chemical_formula_sum              "Cu2 C6 N4 O10"
_cell_length_a       6.950721000000001
_cell_length_b       7.113486077992492
_cell_length_c       8.6539786637408
_cell_angle_alpha    105.43300670560022
_cell_angle_beta     90.64948243757532
_cell_angle_gamma    112.19062950933201

_space_group_name_H-M_alt    "P 1"
_space_group_IT_number       1

loop_
  _space_group_symop_operation_xyz
  'x, y, z'

loop_
  _atom_site_type_symbol
  _atom_site_label
  _atom_site_symmetry_multiplicity
  _atom_site_fract_x
  _atom_site_fract_y
  _atom_site_fract_z
  _atom_site_occupancy
  Cu  Cu1       1.0  0.47551742117689355  0.04881498071037216  0.9841179811853016  1.0000
  Cu  Cu2       1.0  0.07400325163886713  0.10685788344237954  0.3531170506123595  1.0000
  C   C1        1.0  0.09671619134979685  0.051122396377199085  0.6604872998222461  1.0000
  C   C2        1.0  0.5990905282841068  0.7582937527524407  0.27504148562792713  1.0000
  C   C3        1.0  0.68705513943728  0.33137592264601473  0.6476061056554641  1.0000
  C   C4        1.0  0.10544334509302951  0.41125573484913974  0.9699886983639243  1.0000
  C   C5        1.0  0.5139383612868826  0.8817637184509746  0.8110140757672416  1.0000
  C   C6        1.0  0.13957852731915354  0.3765473132196893  0.5023751545982964  1.0000
  N   N1        1.0  0.6774892621667526  0.3623638414315665  0.09503382883044532  1.0000
  N   N2        1.0  0.22640961730001388  0.744515740408189  0.4385395627159168  1.0000
  N   N3        1.0  0.5966744879930427  0.3100695645010638  0.19847465522443836  1.0000
  N   N4        1.0  0.1177645970593673  0.8223959614146736  0.43632084749437366  1.0000
  O   O1        1.0  0.9240530676002864  0.03706477498878869  0.6201783826924351  1.0000
  O   O2        1.0  0.7482237199335516  0.9161292669790432  0.2889935864472118  1.0000
  O   O3        1.0  0.6986230163386951  0.4100712857337823  0.5385107798445572  1.0000
  O   O4        1.0  0.039217104413511256  0.29645119492889216  0.052569289721458114  1.0000
  O   O5        1.0  0.4782237716018112  0.6056445914427651  0.2880739454108883  1.0000
  O   O6        1.0  0.2486898006790443  0.08223598146837126  0.7261321700862795  1.0000
  O   O7        1.0  0.1811181319678986  0.47367211104039963  0.8684856312331074  1.0000
  O   O8        1.0  0.6195841090406572  0.22602528874128816  0.7360491206435609  1.0000
  O   O9        1.0  0.5584043107342623  0.741631963208325  0.8057049181005393  1.0000
  O   O10       1.0  0.3013959642896608  0.5252275372073332  0.5637529601015836  1.0000
data_image11
_chemical_formula_structural       Cu2C6N4O10
_chemical_formula_sum              "Cu2 C6 N4 O10"
_cell_length_a       6.950721000000001
_cell_length_b       7.113486077992492
_cell_length_c       8.6539786637408
_cell_angle_alpha    105.43300670560022
_cell_angle_beta     90.64948243757532
_cell_angle_gamma    112.19062950933201

_space_group_name_H-M_alt    "P 1"
_space_group_IT_number       1

loop_
  _space_group_symop_operation_xyz
  'x, y, z'

loop_
  _atom_site_type_symbol
  _atom_site_label
  _atom_site_symmetry_multiplicity
  _atom_site_fract_x
  _atom_site_fract_y
  _atom_site_fract_z
  _atom_site_occupancy
  Cu  Cu1       1.0  0.5244837475038104  0.980138243255621  0.9161156040462609  1.0000
  Cu  Cu2       1.0  0.02516637738095192  0.1432041422780139  0.3819641689343275  1.0000
  C   C1        1.0  0.1314217241248434  0.10975083338896359  0.7231885990160178  1.0000
  C   C2        1.0  0.6929724922793039  0.9092625892822536  0.3011206624134763  1.0000
  C   C3        1.0  0.6801190430522865  0.22070237866185982  0.6321862161730509  1.0000
  C   C4        1.0  0.11045743448791434  0.4844116325784035  0.016017573195884982  1.0000
  C   C5        1.0  0.6070446505323818  0.7841853758855624  0.9715496504191824  1.0000
  C   C6        1.0  0.1766617271655202  0.4297394443150929  0.42099682706259484  1.0000
  N   N1        1.0  0.6959922739941573  0.34706868273389924  0.15817168004929294  1.0000
  N   N2        1.0  0.015590509770162278  0.7519550183900925  0.28591652490539593  1.0000
  N   N3        1.0  0.6148716796336888  0.27355764559572976  0.2503396035243094  1.0000
  N   N4        1.0  0.9842611577837705  0.8260772717303607  0.1959784281038683  1.0000
  O   O1        1.0  0.99411142089534  0.948601594534862  0.7400886951509947  1.0000
  O   O2        1.0  0.6148549316587493  0.032944970186129074  0.35008727990333405  1.0000
  O   O3        1.0  0.7609677275886049  0.38654475796059373  0.6107616318570953  1.0000
  O   O4        1.0  0.15366612665223686  0.3993436761289572  0.1099623828831345  1.0000
  O   O5        1.0  0.6149274753538645  0.6981092154091931  0.22123898918084892  1.0000
  O   O6        1.0  0.255063054255549  0.1887638376803001  0.6490764437073921  1.0000
  O   O7        1.0  0.08824606800107933  0.529280162731763  0.8904058880215003  1.0000
  O   O8        1.0  0.5884587630046398  0.04970861610350519  0.6703427362674648  1.0000
  O   O9        1.0  0.602303850982157  0.6183078587307507  0.9454578260012829  1.0000
  O   O10       1.0  0.20405670145238272  0.5356250503364303  0.5527050416876044  1.0000
data_image12
_chemical_formula_structural       Cu2C6N4O10
_chemical_formula_sum              "Cu2 C6 N4 O10"
_cell_length_a       6.950721000000001
_cell_length_b       7.113486077992492
_cell_length_c       8.6539786637408
_cell_angle_alpha    105.43300670560022
_cell_angle_beta     90.64948243757532
_cell_angle_gamma    112.19062950933201

_space_group_name_H-M_alt    "P 1"
_space_group_IT_number       1

loop_
  _space_group_symop_operation_xyz
  'x, y, z'

loop_
  _atom_site_type_symbol
  _atom_site_label
  _atom_site_symmetry_multiplicity
  _atom_site_fract_x
  _atom_site_fract_y
  _atom_site_fract_z
  _atom_site_occupancy
  Cu  Cu1       1.0  0.5375216446779052  0.8895764514084935  0.8603430192155797  1.0000
  Cu  Cu2       1.0  0.9761392569459425  0.20891350642696135  0.4092093737270995  1.0000
  C   C1        1.0  0.07300941358074432  0.021562718607024547  0.7257924451110395  1.0000
  C   C2        1.0  0.6403033908231605  0.9690507078026254  0.37312124155822834  1.0000
  C   C3        1.0  0.6337291402327585  0.1672092003386766  0.6909486861909868  1.0000
  C   C4        1.0  0.2030774849706697  0.4376417197524082  0.9717690904289737  1.0000
  C   C5        1.0  0.5275552775019442  0.6370696054972849  0.9170628402847565  1.0000
  C   C6        1.0  0.1764511390653156  0.46290651073291117  0.40907058469749075  1.0000
  N   N1        1.0  0.7420678202855564  0.2751643537545938  0.18590902256634895  1.0000
  N   N2        1.0  0.15231395864134592  0.894636685836095  0.1758806551722163  1.0000
  N   N3        1.0  0.6559138451773059  0.3627410191428853  0.2572782386969382  1.0000
  N   N4        1.0  0.11785676660816989  0.8982811207587599  0.056593829289656984  1.0000
  O   O1        1.0  0.9287349349778389  0.972791807037885  0.7926314295075663  1.0000
  O   O2        1.0  0.4555119275360489  0.9303687663311915  0.30685070995536967  1.0000
  O   O3        1.0  0.7397308816757286  0.3266248622638186  0.6626996298794692  1.0000
  O   O4        1.0  0.32750389177034106  0.432364889623859  0.07184388852798768  1.0000
  O   O5        1.0  0.7631100354855463  0.9706852770266305  0.4693145120827451  1.0000
  O   O6        1.0  0.2225334259271045  0.17034981751591152  0.6911658753851125  1.0000
  O   O7        1.0  0.028596748959078502  0.43576308887744863  0.9455940603962969  1.0000
  O   O8        1.0  0.5026821498234694  0.02148941261972047  0.7131419585243741  1.0000
  O   O9        1.0  0.6655656438765077  0.5779077334452488  0.9270913946973555  1.0000
  O   O10       1.0  0.18302982197672804  0.6290352677178328  0.44497168370376655  1.0000
data_image13
_chemical_formula_structural       Cu2C6N4O10
_chemical_formula_sum              "Cu2 C6 N4 O10"
_cell_length_a       6.950721000000001
_cell_length_b       7.113486077992492
_cell_length_c       8.6539786637408
_cell_angle_alpha    105.43300670560022
_cell_angle_beta     90.64948243757532
_cell_angle_gamma    112.19062950933201

_space_group_name_H-M_alt    "P 1"
_space_group_IT_number       1

loop_
  _space_group_symop_operation_xyz
  'x, y, z'

loop_
  _atom_site_type_symbol
  _atom_site_label
  _atom_site_symmetry_multiplicity
  _atom_site_fract_x
  _atom_site_fract_y
  _atom_site_fract_z
  _atom_site_occupancy
  Cu  Cu1       1.0  0.6007003662838137  0.8948263984376703  0.8706991964590776  1.0000
  Cu  Cu2       1.0  0.9503488684545345  0.2476889713917875  0.3603552646306735  1.0000
  C   C1        1.0  0.10951596404293969  0.04249156561206026  0.6999048019457645  1.0000
  C   C2        1.0  0.6757906212654283  0.9172644506373991  0.35725461955291893  1.0000
  C   C3        1.0  0.4508521090607661  0.029525356728806282  0.7370965394178347  1.0000
  C   C4        1.0  0.18745735263772179  0.38483119331289267  0.07627672829680518  1.0000
  C   C5        1.0  0.7270340269978677  0.7674222083772239  0.954947248931606  1.0000
  C   C6        1.0  0.11477314200719659  0.5650588183778829  0.39506536135753273  1.0000
  N   N1        1.0  0.586613773862549  0.33027045026743757  0.15659770250740956  1.0000
  N   N2        1.0  0.21976220473713462  0.001451179102414546  0.08701490491337754  1.0000
  N   N3        1.0  0.69406207614937  0.45947438115668365  0.25922861078070364  1.0000
  N   N4        1.0  0.07354140090303063  0.9269286827830933  0.14910322719658442  1.0000
  O   O1        1.0  0.0054195914289671175  0.92103619226566  0.785797817268233  1.0000
  O   O2        1.0  0.5976785408343395  0.7948277807818376  0.22636593916229256  1.0000
  O   O3        1.0  0.5464005335407645  0.16701901932083446  0.6967536071057902  1.0000
  O   O4        1.0  0.3467634358033795  0.45313912626615116  0.037590890361795  1.0000
  O   O5        1.0  0.7967246584536245  0.9500301818820295  0.46850921428828807  1.0000
  O   O6        1.0  0.2356128091954775  0.19324901086871238  0.6857529751491523  1.0000
  O   O7        1.0  0.006133292285688113  0.34113847147123677  0.09107157690207979  1.0000
  O   O8        1.0  0.3258543447679486  0.8440870925967955  0.7381497079453763  1.0000
  O   O9        1.0  0.7396436255601518  0.6464861641175588  0.008407340028406596  1.0000
  O   O10       1.0  0.13869890754763878  0.7191365011867547  0.3667005840148442  1.0000
data_image14
_chemical_formula_structural       Cu2C6N4O10
_chemical_formula_sum              "Cu2 C6 N4 O10"
_cell_length_a       6.950721000000001
_cell_length_b       7.113486077992492
_cell_length_c       8.6539786637408
_cell_angle_alpha    105.43300670560022
_cell_angle_beta     90.64948243757532
_cell_angle_gamma    112.19062950933201

_space_group_name_H-M_alt    "P 1"
_space_group_IT_number       1

loop_
  _space_group_symop_operation_xyz
  'x, y, z'

loop_
  _atom_site_type_symbol
  _atom_site_label
  _atom_site_symmetry_multiplicity
  _atom_site_fract_x
  _atom_site_fract_y
  _atom_site_fract_z
  _atom_site_occupancy
  Cu  Cu1       1.0  0.646358010483048  0.8423480190749093  0.9694850013339883  1.0000
  Cu  Cu2       1.0  0.8932107348140037  0.24544942986977256  0.24063146397160295  1.0000
  C   C1        1.0  0.08569013355157844  0.16522129033086974  0.7184465863587058  1.0000
  C   C2        1.0  0.6251540799568225  0.07987161530275833  0.32177517229244357  1.0000
  C   C3        1.0  0.5044759677420017  0.8229493547045809  0.7025062292495522  1.0000
  C   C4        1.0  0.23958495160223273  0.4422150111920273  0.060329625073429934  1.0000
  C   C5        1.0  0.7812762809256744  0.6630924324392286  0.9239503231263337  1.0000
  C   C6        1.0  0.0031113930027061574  0.5318954567460515  0.45065985719538637  1.0000
  N   N1        1.0  0.6377162761652878  0.5277107491296452  0.1903673492116596  1.0000
  N   N2        1.0  0.1824636388069485  0.940656408379849  0.1173075641035963  1.0000
  N   N3        1.0  0.5532094856894383  0.5163234115642901  0.300271001175772  1.0000
  N   N4        1.0  0.21233088672566724  0.009402108786431551  0.2523865567581398  1.0000
  O   O1        1.0  0.10674225422520753  0.0023236868944253473  0.697085403561406  1.0000
  O   O2        1.0  0.5461226458934092  0.8809708988743115  0.26038888264923926  1.0000
  O   O3        1.0  0.5057134200103391  0.9906054918533737  0.6884322136200559  1.0000
  O   O4        1.0  0.3891036976441938  0.47375555826409893  0.9899356016168552  1.0000
  O   O5        1.0  0.7372072952351861  0.1710065174587756  0.4522395043027668  1.0000
  O   O6        1.0  0.07259051004214284  0.29441008687151254  0.6629570176595625  1.0000
  O   O7        1.0  0.095635398227174  0.3260597983435973  0.11508215950983014  1.0000
  O   O8        1.0  0.4593044490855978  0.6774071340812241  0.7572384042815093  1.0000
  O   O9        1.0  0.7999800366956548  0.5131290824010358  0.8620461007187348  1.0000
  O   O10       1.0  0.08185194168938112  0.6756956488120447  0.5590457092497022  1.0000
data_image15
_chemical_formula_structural       Cu2C6N4O10
_chemical_formula_sum              "Cu2 C6 N4 O10"
_cell_length_a       6.950721000000001
_cell_length_b       7.113486077992492
_cell_length_c       8.6539786637408
_cell_angle_alpha    105.43300670560022
_cell_angle_beta     90.64948243757532
_cell_angle_gamma    112.19062950933201

_space_group_name_H-M_alt    "P 1"
_space_group_IT_number       1

loop_
  _space_group_symop_operation_xyz
  'x, y, z'

loop_
  _atom_site_type_symbol
  _atom_site_label
  _atom_site_symmetry_multiplicity
  _atom_site_fract_x
  _atom_site_fract_y
  _atom_site_fract_z
  _atom_site_occupancy
  Cu  Cu1       1.0  0.7801856657590138  0.7896850848043635  0.9693825019355325  1.0000
  Cu  Cu2       1.0  0.8090684311117387  0.12810824732492493  0.19455313842115918  1.0000
  C   C1        1.0  0.19529873851462623  0.2764531385729078  0.6517230788249297  1.0000
  C   C2        1.0  0.6022751831294763  0.06682327638234797  0.32963436062059936  1.0000
  C   C3        1.0  0.5543025038569052  0.7646348243825185  0.6677834031960722  1.0000
  C   C4        1.0  0.10571085658311084  0.4692240806018654  0.09912949987487753  1.0000
  C   C5        1.0  0.7870959614513183  0.5266970429434933  0.9230887178747113  1.0000
  C   C6        1.0  0.08206721139918463  0.6943756893887675  0.5586473474562664  1.0000
  N   N1        1.0  0.6896475537602552  0.674559137562844  0.22160220800995759  1.0000
  N   N2        1.0  0.17485888334444716  0.07167681600331499  0.15067524554911077  1.0000
  N   N3        1.0  0.5830689790660528  0.5322768831106679  0.2508573440083874  1.0000
  N   N4        1.0  0.1515061372382522  0.037821568773825476  0.2648837382615311  1.0000
  O   O1        1.0  0.2613523663876428  0.17494210189727857  0.7121593475829863  1.0000
  O   O2        1.0  0.5238284290993575  0.9459908160249775  0.41884894475624457  1.0000
  O   O3        1.0  0.4307103832694003  0.8362474664063091  0.6534295395877184  1.0000
  O   O4        1.0  0.13255697350919887  0.5601083457855048  0.0022656101558071935  1.0000
  O   O5        1.0  0.6150532719487846  0.2604590079650819  0.33470426265510617  1.0000
  O   O6        1.0  0.05048630400893365  0.3081973199292431  0.6093986992089907  1.0000
  O   O7        1.0  0.07881041426009992  0.3940545870632514  0.19951605011842055  1.0000
  O   O8        1.0  0.6834087631982928  0.7241346076261741  0.6991367558184673  1.0000
  O   O9        1.0  0.7069484756389562  0.34855540202711777  0.8540304284425397  1.0000
  O   O10       1.0  0.04101219130943033  0.7754628030448601  0.6809944797567745  1.0000
data_image16
_chemical_formula_structural       Cu2C6N4O10
_chemical_formula_sum              "Cu2 C6 N4 O10"
_cell_length_a       6.950721000000001
_cell_length_b       7.113486077992492
_cell_length_c       8.6539786637408
_cell_angle_alpha    105.43300670560022
_cell_angle_beta     90.64948243757532
_cell_angle_gamma    112.19062950933201

_space_group_name_H-M_alt    "P 1"
_space_group_IT_number       1

loop_
  _space_group_symop_operation_xyz
  'x, y, z'

loop_
  _atom_site_type_symbol
  _atom_site_label
  _atom_site_symmetry_multiplicity
  _atom_site_fract_x
  _atom_site_fract_y
  _atom_site_fract_z
  _atom_site_occupancy
  Cu  Cu1       1.0  0.7891618810513494  0.7563019518066939  0.95410858610543  1.0000
  Cu  Cu2       1.0  0.77618987791693  0.9816346043059249  0.21300602771712382  1.0000
  C   C1        1.0  0.1962647463448596  0.2798719042647342  0.6455175793486528  1.0000
  C   C2        1.0  0.5658979901950724  0.15477169703301863  0.32896347661548525  1.0000
  C   C3        1.0  0.5543506918774707  0.695131953196135  0.6446775058435755  1.0000
  C   C4        1.0  0.14050051124689933  0.626929650290006  0.12124914587235451  1.0000
  C   C5        1.0  0.7540125121530535  0.5076456046829463  0.8376582239839745  1.0000
  C   C6        1.0  0.11471362257190337  0.7217182738249464  0.5740567982595772  1.0000
  N   N1        1.0  0.6844322429997034  0.716634582163499  0.3289274582562853  1.0000
  N   N2        1.0  0.08042880193255428  0.0589748284925391  0.2182177078411028  1.0000
  N   N3        1.0  0.5929989424608878  0.6378321084584797  0.20752398249835458  1.0000
  N   N4        1.0  0.14433573846544462  0.08029283295446787  0.34172129191353856  1.0000
  O   O1        1.0  0.3034984671055562  0.295043341934791  0.7597014338314474  1.0000
  O   O2        1.0  0.51435670184477  0.08188948762957526  0.43251422030584347  1.0000
  O   O3        1.0  0.39967351244677857  0.6302432206627644  0.6993993391353208  1.0000
  O   O4        1.0  0.2901116789538184  0.7016228721778444  0.05107306527778823  1.0000
  O   O5        1.0  0.5530505647985983  0.20304847466895093  0.20226253816630907  1.0000
  O   O6        1.0  0.04485436877967816  0.2747329440457515  0.5648958402651504  1.0000
  O   O7        1.0  0.9788869088850461  0.5395872624495901  0.17320651817240917  1.0000
  O   O8        1.0  0.7158983885340267  0.7621264087627705  0.598786865956981  1.0000
  O   O9        1.0  0.7829461717208515  0.38531750146755034  0.8744990693410051  1.0000
  O   O10       1.0  0.12120390145191254  0.8724870177124807  0.6728470908203756  1.0000
data_image17
_chemical_formula_structural       Cu2C6N4O10
_chemical_formula_sum              "Cu2 C6 N4 O10"
_cell_length_a       6.950721000000001
_cell_length_b       7.113486077992492
_cell_length_c       8.6539786637408
_cell_angle_alpha    105.43300670560022
_cell_angle_beta     90.64948243757532
_cell_angle_gamma    112.19062950933201

_space_group_name_H-M_alt    "P 1"
_space_group_IT_number       1

loop_
  _space_group_symop_operation_xyz
  'x, y, z'

loop_
  _atom_site_type_symbol
  _atom_site_label
  _atom_site_symmetry_multiplicity
  _atom_site_fract_x
  _atom_site_fract_y
  _atom_site_fract_z
  _atom_site_occupancy
  Cu  Cu1       1.0  0.7232732446161643  0.6343620336697808  0.9242963659044134  1.0000
  Cu  Cu2       1.0  0.7362156045349213  0.9000473118824628  0.17484662322612043  1.0000
  C   C1        1.0  0.08911517590871172  0.3229187599729369  0.8189295531966124  1.0000
  C   C2        1.0  0.5617495148961619  0.17379194992028046  0.3229483739061794  1.0000
  C   C3        1.0  0.6692108537428726  0.8063745916108431  0.6787246768844765  1.0000
  C   C4        1.0  0.22676522038335273  0.7771945808840978  0.11948099616291112  1.0000
  C   C5        1.0  0.7553772560933384  0.3596375842820355  0.8493830583401598  1.0000
  C   C6        1.0  0.2921145412558048  0.822967372972702  0.548051527402666  1.0000
  N   N1        1.0  0.5997909718951229  0.6267323455556365  0.2404394768423295  1.0000
  N   N2        1.0  0.01737153343211762  0.17819993350464602  0.22354999386267657  1.0000
  N   N3        1.0  0.6101483092952201  0.5933367876261642  0.10215647325502333  1.0000
  N   N4        1.0  0.17571808955840568  0.27986841350619907  0.30595689012588645  1.0000
  O   O1        1.0  0.13823671731728632  0.2777870057753859  0.9334865731077447  1.0000
  O   O2        1.0  0.6114941830661145  0.1626899633154406  0.4548320797360522  1.0000
  O   O3        1.0  0.5481657442226877  0.6627080160695648  0.7315980276613693  1.0000
  O   O4        1.0  0.3082718773941947  0.8773476551887167  0.028039066825377365  1.0000
  O   O5        1.0  0.5544912180033622  0.275609222217581  0.2357400769730701  1.0000
  O   O6        1.0  0.053453684920213525  0.3652688309805619  0.7086364278411612  1.0000
  O   O7        1.0  0.10630539976319488  0.648925874111776  0.18100817825772508  1.0000
  O   O8        1.0  0.839508577599619  0.8578100108753234  0.6490034161792115  1.0000
  O   O9        1.0  0.6236035404864477  0.19434078862653967  0.7733986741715843  1.0000
  O   O10       1.0  0.2255742860944243  0.8683149573486052  0.6641400575876016  1.0000
data_image18
_chemical_formula_structural       Cu2C6N4O10
_chemical_formula_sum              "Cu2 C6 N4 O10"
_cell_length_a       6.950721000000001
_cell_length_b       7.113486077992492
_cell_length_c       8.6539786637408
_cell_angle_alpha    105.43300670560022
_cell_angle_beta     90.64948243757532
_cell_angle_gamma    112.19062950933201

_space_group_name_H-M_alt    "P 1"
_space_group_IT_number       1

loop_
  _space_group_symop_operation_xyz
  'x, y, z'

loop_
  _atom_site_type_symbol
  _atom_site_label
  _atom_site_symmetry_multiplicity
  _atom_site_fract_x
  _atom_site_fract_y
  _atom_site_fract_z
  _atom_site_occupancy
  Cu  Cu1       1.0  0.7048071894195953  0.567222843480573  0.8731049843825907  1.0000
  Cu  Cu2       1.0  0.7780047729828543  0.9495437798213204  0.11655974807780532  1.0000
  C   C1        1.0  0.14704759822971208  0.41995829321584816  0.8789047896143627  1.0000
  C   C2        1.0  0.5712490280989304  0.24676204717672645  0.38073370909727045  1.0000
  C   C3        1.0  0.6850497090582461  0.7620476181642587  0.6962686915044989  1.0000
  C   C4        1.0  0.1664532227485465  0.8149628993475018  0.18064125187800228  1.0000
  C   C5        1.0  0.6984437115405465  0.2934888253952766  0.7580403593133699  1.0000
  C   C6        1.0  0.3213646970811524  0.688840072296877  0.5222543367307263  1.0000
  N   N1        1.0  0.5917381505611866  0.7002623072665591  0.25471688353591404  1.0000
  N   N2        1.0  0.03419647552640566  0.14055889233769636  0.34652729425726997  1.0000
  N   N3        1.0  0.6185816080325611  0.649386481028502  0.11116564795310681  1.0000
  N   N4        1.0  0.9855770376526304  0.20822234636417236  0.2630673761511911  1.0000
  O   O1        1.0  0.15138405638964839  0.30209889422602715  0.9481370310868289  1.0000
  O   O2        1.0  0.7238194143486641  0.2612748221292358  0.460428374637524  1.0000
  O   O3        1.0  0.522268113394955  0.6385719544365739  0.7200280611670011  1.0000
  O   O4        1.0  0.157838941721695  0.8987384819373744  0.09011964493894109  1.0000
  O   O5        1.0  0.40418994232791194  0.14853103239067034  0.29286843061876644  1.0000
  O   O6        1.0  0.16209429498394265  0.5286814395140741  0.800487350016075  1.0000
  O   O7        1.0  0.1784597654251221  0.7434251724041392  0.2776644795862153  1.0000
  O   O8        1.0  0.8586314834117224  0.8583566838870362  0.7004276982795405  1.0000
  O   O9        1.0  0.6725513531476303  0.1146984149226602  0.7469047830039587  1.0000
  O   O10       1.0  0.24043969678327148  0.7763193097143836  0.6083143753458989  1.0000
data_image19
_chemical_formula_structural       Cu2C6N4O10
_chemical_formula_sum              "Cu2 C6 N4 O10"
_cell_length_a       6.950721000000001
_cell_length_b       7.113486077992492
_cell_length_c       8.6539786637408
_cell_angle_alpha    105.43300670560022
_cell_angle_beta     90.64948243757532
_cell_angle_gamma    112.19062950933201

_space_group_name_H-M_alt    "P 1"
_space_group_IT_number       1

loop_
  _space_group_symop_operation_xyz
  'x, y, z'

loop_
  _atom_site_type_symbol
  _atom_site_label
  _atom_site_symmetry_multiplicity
  _atom_site_fract_x
  _atom_site_fract_y
  _atom_site_fract_z
  _atom_site_occupancy
  Cu  Cu1       1.0  0.6688833788982251  0.5609635279794069  0.9111624946744836  1.0000
  Cu  Cu2       1.0  0.7508205672751975  0.9420231238371661  0.08537765574906037  1.0000
  C   C1        1.0  0.1931632607729587  0.3445882362472494  0.8962665160352088  1.0000
  C   C2        1.0  0.6707858092972933  0.2409156836921018  0.38000686338817696  1.0000
  C   C3        1.0  0.8047237401845668  0.8710867173491671  0.7708302976132189  1.0000
  C   C4        1.0  0.13513171645152433  0.736219365532661  0.06917512636472607  1.0000
  C   C5        1.0  0.64018493406261  0.28285797281882163  0.8308857152235885  1.0000
  C   C6        1.0  0.11261070167231282  0.6346469314638121  0.5744354454620169  1.0000
  N   N1        1.0  0.6768720210713386  0.6893660265176695  0.3261380016891412  1.0000
  N   N2        1.0  0.11743587937618118  0.2788108409813752  0.27855480994412524  1.0000
  N   N3        1.0  0.7083622745984071  0.7315518038447867  0.20657188442840052  1.0000
  N   N4        1.0  0.966068100215232  0.13464968382945264  0.2382489917945757  1.0000
  O   O1        1.0  0.20024050997109413  0.25530998612197064  0.9837729517975969  1.0000
  O   O2        1.0  0.7797549821218429  0.4352467068581245  0.45085888158023296  1.0000
  O   O3        1.0  0.6286921798574953  0.7498164416164479  0.7596793128385102  1.0000
  O   O4        1.0  0.07813052341434845  0.8022016599855006  0.9678249324604703  1.0000
  O   O5        1.0  0.5260294256594785  0.07890207442581865  0.3235188580778668  1.0000
  O   O6        1.0  0.21339910311418855  0.4374382159243035  0.8021134287503958  1.0000
  O   O7        1.0  0.15187981193254077  0.6701927732399066  0.16854408861180947  1.0000
  O   O8        1.0  0.9304929675459119  0.010628309711268907  0.7297613083936991  1.0000
  O   O9        1.0  0.5360690089827633  0.09144593299277182  0.769415637401273  1.0000
  O   O10       1.0  0.09754311050970897  0.7617732096053323  0.5184292559147521  1.0000
data_image20
_chemical_formula_structural       Cu2C6N4O10
_chemical_formula_sum              "Cu2 C6 N4 O10"
_cell_length_a       6.950721000000001
_cell_length_b       7.113486077992492
_cell_length_c       8.6539786637408
_cell_angle_alpha    105.43300670560022
_cell_angle_beta     90.64948243757532
_cell_angle_gamma    112.19062950933201

_space_group_name_H-M_alt    "P 1"
_space_group_IT_number       1

loop_
  _space_group_symop_operation_xyz
  'x, y, z'

loop_
  _atom_site_type_symbol
  _atom_site_label
  _atom_site_symmetry_multiplicity
  _atom_site_fract_x
  _atom_site_fract_y
  _atom_site_fract_z
  _atom_site_occupancy
  Cu  Cu1       1.0  0.6961283947813117  0.528028012061241  0.9555191980427491  1.0000
  Cu  Cu2       1.0  0.7262544945437497  0.8867214355841971  0.10227069748436332  1.0000
  C   C1        1.0  0.24685300049843317  0.3448865785919894  0.8836000192217185  1.0000
  C   C2        1.0  0.6815949037951625  0.22658932067265725  0.36696192868959604  1.0000
  C   C3        1.0  0.7558917300927697  0.879927315335547  0.754820766968963  1.0000
  C   C4        1.0  0.05579337010562526  0.7461109372638037  0.9999384283600699  1.0000
  C   C5        1.0  0.6352468213780817  0.27079042255451385  0.839293424001845  1.0000
  C   C6        1.0  0.15557391770762696  0.8864753170694578  0.5484755691665806  1.0000
  N   N1        1.0  0.5063297187563304  0.5514943618263717  0.3058444062863239  1.0000
  N   N2        1.0  0.1066165146242691  0.2646917566062106  0.21211119158361805  1.0000
  N   N3        1.0  0.6826101832715321  0.6594498389136263  0.32764558120923326  1.0000
  N   N4        1.0  0.963725971875958  0.23565628159544172  0.1299640255963373  1.0000
  O   O1        1.0  0.27179246824416103  0.22611531361976864  0.938950981510147  1.0000
  O   O2        1.0  0.7552900755289577  0.39417707758911247  0.4380251026090413  1.0000
  O   O3        1.0  0.6846905160409987  0.7136316253877002  0.7899173550000501  1.0000
  O   O4        1.0  0.1072166032856833  0.8614727341219537  0.9216750048055676  1.0000
  O   O5        1.0  0.6080653391774453  0.022236642081863156  0.28892275412949286  1.0000
  O   O6        1.0  0.25273514908372524  0.5018516675387373  0.8692071480018129  1.0000
  O   O7        1.0  0.07894102680713916  0.6622846315716368  0.10421259304632158  1.0000
  O   O8        1.0  0.8921453364573557  0.05206400092420837  0.7603250252265641  1.0000
  O   O9        1.0  0.48863306501832127  0.08916392110429042  0.7658514131935288  1.0000
  O   O10       1.0  0.1900323541687062  0.04228289076031522  0.510614176788289  1.0000
data_image21
_chemical_formula_structural       Cu2C6N4O10
_chemical_formula_sum              "Cu2 C6 N4 O10"
_cell_length_a       6.950721000000001
_cell_length_b       7.113486077992492
_cell_length_c       8.6539786637408
_cell_angle_alpha    105.43300670560022
_cell_angle_beta     90.64948243757532
_cell_angle_gamma    112.19062950933201

_space_group_name_H-M_alt    "P 1"
_space_group_IT_number       1

loop_
  _space_group_symop_operation_xyz
  'x, y, z'

loop_
  _atom_site_type_symbol
  _atom_site_label
  _atom_site_symmetry_multiplicity
  _atom_site_fract_x
  _atom_site_fract_y
  _atom_site_fract_z
  _atom_site_occupancy
  Cu  Cu1       1.0  0.8045373456525649  0.5307045342955287  0.9439783119987295  1.0000
  Cu  Cu2       1.0  0.6678926603865925  0.757105983797147  0.1261097872058659  1.0000
  C   C1        1.0  0.3263805961636772  0.4592663262514984  0.8982966181769942  1.0000
  C   C2        1.0  0.729326992499613  0.20093615178890722  0.40357472188884647  1.0000
  C   C3        1.0  0.7450008742078247  0.847437384900704  0.6406860701956336  1.0000
  C   C4        1.0  0.9918877179411002  0.8173214732781434  0.14309184947595097  1.0000
  C   C5        1.0  0.6628555789228961  0.3744522936834851  0.7426888543314601  1.0000
  C   C6        1.0  0.05151311462484369  0.8603083423778598  0.5059240947173234  1.0000
  N   N1        1.0  0.5589198066610181  0.637211927094377  0.2965853874194439  1.0000
  N   N2        1.0  0.004465603276331429  0.4008481394932619  0.24636913348684944  1.0000
  N   N3        1.0  0.43485876056657274  0.5073325679297586  0.33749657688698603  1.0000
  N   N4        1.0  0.9387243034341968  0.3076950131547882  0.11743742230867969  1.0000
  O   O1        1.0  0.3675085552675784  0.36251328305426384  0.9748610901351735  1.0000
  O   O2        1.0  0.7559832923700622  0.3847922807965831  0.463622153855927  1.0000
  O   O3        1.0  0.6358475950419323  0.6861485160365008  0.6474222752980352  1.0000
  O   O4        1.0  0.01603183083432561  0.8384728386894478  0.9996162942117205  1.0000
  O   O5        1.0  0.7419752348671643  0.051776627771793704  0.33181555599356777  1.0000
  O   O6        1.0  0.2148039252080599  0.46584501863705025  0.8053876551936585  1.0000
  O   O7        1.0  0.08769445001060615  0.7751718246995061  0.23046840025967197  1.0000
  O   O8        1.0  0.8644467168390673  0.03198374347283155  0.6777165704710493  1.0000
  O   O9        1.0  0.5454693999148882  0.18491816744718978  0.7105950605500417  1.0000
  O   O10       1.0  0.200771398728711  0.014094450251657342  0.5248681273288233  1.0000
data_image22
_chemical_formula_structural       Cu2C6N4O10
_chemical_formula_sum              "Cu2 C6 N4 O10"
_cell_length_a       6.950721000000001
_cell_length_b       7.113486077992492
_cell_length_c       8.6539786637408
_cell_angle_alpha    105.43300670560022
_cell_angle_beta     90.64948243757532
_cell_angle_gamma    112.19062950933201

_space_group_name_H-M_alt    "P 1"
_space_group_IT_number       1

loop_
  _space_group_symop_operation_xyz
  'x, y, z'

loop_
  _atom_site_type_symbol
  _atom_site_label
  _atom_site_symmetry_multiplicity
  _atom_site_fract_x
  _atom_site_fract_y
  _atom_site_fract_z
  _atom_site_occupancy
  Cu  Cu1       1.0  0.9500181971792276  0.5606568826083563  0.8847546187756741  1.0000
  Cu  Cu2       1.0  0.6613537712595082  0.6766988339456491  0.1896522333622679  1.0000
  C   C1        1.0  0.20427175398291506  0.498769023217874  0.8685365792938524  1.0000
  C   C2        1.0  0.725351531156315  0.11354611301239936  0.39750809973092366  1.0000
  C   C3        1.0  0.7366045915874616  0.9073564614715084  0.712693701842131  1.0000
  C   C4        1.0  0.9611678928049227  0.8627849519874531  0.10059698780775159  1.0000
  C   C5        1.0  0.7015121045503704  0.3716498079395933  0.8235998526857936  1.0000
  C   C6        1.0  0.1107760612787381  0.8142231500673643  0.4993474778707257  1.0000
  N   N1        1.0  0.4095390395111952  0.5457057365081021  0.25094582364758106  1.0000
  N   N2        1.0  0.8774650199724056  0.2827655555231374  0.17791221146530137  1.0000
  N   N3        1.0  0.35499897224359483  0.506340801524691  0.365231428435298  1.0000
  N   N4        1.0  0.9431524663148229  0.2959701697346857  0.06477689770980463  1.0000
  O   O1        1.0  0.29830351590390647  0.47571010677673564  0.9718088801596836  1.0000
  O   O2        1.0  0.6119834322276287  0.2060915492741764  0.37674155086638095  1.0000
  O   O3        1.0  0.5482631686172187  0.7931682004950118  0.7026043190780125  1.0000
  O   O4        1.0  0.9387523020845469  0.8333751818063352  0.9445544365462015  1.0000
  O   O5        1.0  0.8512018328475527  0.03694014415335167  0.41643229766900114  1.0000
  O   O6        1.0  0.23072715087533766  0.5722063239598596  0.7542977040394288  1.0000
  O   O7        1.0  0.12977868824527206  0.9695844125334435  0.1758515386801367  1.0000
  O   O8        1.0  0.9016167822246902  0.04421778050802991  0.7600585051089687  1.0000
  O   O9        1.0  0.5385768131734487  0.2615882197488525  0.7868431164698423  1.0000
  O   O10       1.0  0.1872034526468466  0.9943047632998177  0.5304407222066235  1.0000
data_image23
_chemical_formula_structural       Cu2C6N4O10
_chemical_formula_sum              "Cu2 C6 N4 O10"
_cell_length_a       6.950721000000001
_cell_length_b       7.113486077992492
_cell_length_c       8.6539786637408
_cell_angle_alpha    105.43300670560022
_cell_angle_beta     90.64948243757532
_cell_angle_gamma    112.19062950933201

_space_group_name_H-M_alt    "P 1"
_space_group_IT_number       1

loop_
  _space_group_symop_operation_xyz
  'x, y, z'

loop_
  _atom_site_type_symbol
  _atom_site_label
  _atom_site_symmetry_multiplicity
  _atom_site_fract_x
  _atom_site_fract_y
  _atom_site_fract_z
  _atom_site_occupancy
  Cu  Cu1       1.0  0.03432902960371109  0.6737986215066591  0.8678433954784254  1.0000
  Cu  Cu2       1.0  0.7342190111462948  0.707881578814189  0.2826922728878588  1.0000
  C   C1        1.0  0.2417172079184872  0.5854937834627203  0.7824256546232061  1.0000
  C   C2        1.0  0.6515476524828907  0.02708872099049975  0.44870037936170987  1.0000
  C   C3        1.0  0.7732174576342439  0.899374410239849  0.7748121741076173  1.0000
  C   C4        1.0  0.9726526533494478  0.8735383122785827  0.053881664990903515  1.0000
  C   C5        1.0  0.5143613469443089  0.31550862547854686  0.8746733571778322  1.0000
  C   C6        1.0  0.9654812959949488  0.7196726178900658  0.34522244613156033  1.0000
  N   N1        1.0  0.5001234568176728  0.5175087575043937  0.3106363283407717  1.0000
  N   N2        1.0  0.9243141745011125  0.3597636894380436  0.1309569562145746  1.0000
  N   N3        1.0  0.34301101767830705  0.42032390019909427  0.3357589679224685  1.0000
  N   N4        1.0  0.7949522314978172  0.25937122019110737  0.0367851215168723  1.0000
  O   O1        1.0  0.33232260734678165  0.6360590146216492  0.9174493641647237  1.0000
  O   O2        1.0  0.4701489239241377  0.01048606047103462  0.43232770300751594  1.0000
  O   O3        1.0  0.6167530379558928  0.7815174474213313  0.6882364695864087  1.0000
  O   O4        1.0  0.7892194681503526  0.8083872419970028  0.06620804602396896  1.0000
  O   O5        1.0  0.8518351324997506  0.09938409104846402  0.4489918744288188  1.0000
  O   O6        1.0  0.18002177101312744  0.4488982683078439  0.6558739818878625  1.0000
  O   O7        1.0  0.14554057956744668  0.014473661324450049  0.06253648453484506  1.0000
  O   O8        1.0  0.9541359096950345  0.9702292030795363  0.7804459842209814  1.0000
  O   O9        1.0  0.4445828555100328  0.25155120299715944  0.7405441504624763  1.0000
  O   O10       1.0  0.08510332008696217  0.7678655097609491  0.45648951044953595  1.0000
data_image24
_chemical_formula_structural       Cu2C6N4O10
_chemical_formula_sum              "Cu2 C6 N4 O10"
_cell_length_a       6.950721000000001
_cell_length_b       7.113486077992492
_cell_length_c       8.6539786637408
_cell_angle_alpha    105.43300670560022
_cell_angle_beta     90.64948243757532
_cell_angle_gamma    112.19062950933201

_space_group_name_H-M_alt    "P 1"
_space_group_IT_number       1

loop_
  _space_group_symop_operation_xyz
  'x, y, z'

loop_
  _atom_site_type_symbol
  _atom_site_label
  _atom_site_symmetry_multiplicity
  _atom_site_fract_x
  _atom_site_fract_y
  _atom_site_fract_z
  _atom_site_occupancy
  Cu  Cu1       1.0  0.11971199678539213  0.8397050355620943  0.9309231764107214  1.0000
  Cu  Cu2       1.0  0.7728410917752125  0.7480069751138793  0.33965113372133604  1.0000
  C   C1        1.0  0.17968371926997284  0.48512703416716585  0.734435424124026  1.0000
  C   C2        1.0  0.5786255596434309  0.018580652041169543  0.4850581188269119  1.0000
  C   C3        1.0  0.7639844377588214  0.8348973994119372  0.7299189049256807  1.0000
  C   C4        1.0  0.9865273399080845  0.9333928394870643  0.09446989806458216  1.0000
  C   C5        1.0  0.2737582491271978  0.15116110780543004  0.7735808647320246  1.0000
  C   C6        1.0  0.985508439565764  0.6132375252418925  0.3815906514230047  1.0000
  N   N1        1.0  0.5582442909344969  0.454739347255894  0.3281425487638319  1.0000
  N   N2        1.0  0.9282175595040913  0.3161113052728104  0.96290284060015  1.0000
  N   N3        1.0  0.4078152538895918  0.32035738085924165  0.3189592423367562  1.0000
  N   N4        1.0  0.8718091842862619  0.32616535869874674  0.8522605143977178  1.0000
  O   O1        1.0  0.250864703836972  0.6393318541434723  0.8502697169729239  1.0000
  O   O2        1.0  0.46169116567272966  0.873161385712204  0.3696735483047678  1.0000
  O   O3        1.0  0.5806504491504265  0.7864770012935126  0.6743168171284535  1.0000
  O   O4        1.0  0.8408819020408811  0.8895611714422574  0.15620848687432437  1.0000
  O   O5        1.0  0.7074223303183587  0.15015424606727756  0.588398601212403  1.0000
  O   O6        1.0  0.13955431478671967  0.3957839760613819  0.5989743932198248  1.0000
  O   O7        1.0  0.10609446594203222  0.11526968798961734  0.10780599868887264  1.0000
  O   O8        1.0  0.9220267371194228  0.8166082689672248  0.7509029568791976  1.0000
  O   O9        1.0  0.4572837784071993  0.231436405846973  0.7747262454996449  1.0000
  O   O10       1.0  5.85742389949195e-06  0.48440371765730705  0.26820677423639977  1.0000
data_image25
_chemical_formula_structural       Cu2C6N4O10
_chemical_formula_sum              "Cu2 C6 N4 O10"
_cell_length_a       6.950721000000001
_cell_length_b       7.113486077992492
_cell_length_c       8.6539786637408
_cell_angle_alpha    105.43300670560022
_cell_angle_beta     90.64948243757532
_cell_angle_gamma    112.19062950933201

_space_group_name_H-M_alt    "P 1"
_space_group_IT_number       1

loop_
  _space_group_symop_operation_xyz
  'x, y, z'

loop_
  _atom_site_type_symbol
  _atom_site_label
  _atom_site_symmetry_multiplicity
  _atom_site_fract_x
  _atom_site_fract_y
  _atom_site_fract_z
  _atom_site_occupancy
  Cu  Cu1       1.0  0.1056592931416791  0.9000289092502827  0.9509796921036474  1.0000
  Cu  Cu2       1.0  0.8187853641473652  0.7225230220648637  0.3010774357723916  1.0000
  C   C1        1.0  0.24210981415569838  0.5650503570027486  0.7298853848021474  1.0000
  C   C2        1.0  0.5263604891840403  0.007856881598266252  0.435059604734301  1.0000
  C   C3        1.0  0.7165826985914031  0.7023860068188332  0.6632508507794169  1.0000
  C   C4        1.0  0.09993562120864893  0.0642975888265005  0.20766229170369835  1.0000
  C   C5        1.0  0.22052083730812738  0.08963894540055795  0.8353772823842511  1.0000
  C   C6        1.0  0.06965325817704628  0.6405093147503746  0.35605463466443976  1.0000
  N   N1        1.0  0.5283230121742728  0.36496347158249254  0.34522017317832343  1.0000
  N   N2        1.0  0.7550950424962336  0.2206962721985799  0.8759605500637729  1.0000
  N   N3        1.0  0.5269744563905224  0.25059913506020043  0.22950749755541025  1.0000
  N   N4        1.0  0.8482244595588199  0.36000229641253023  0.9825957596245515  1.0000
  O   O1        1.0  0.23494179586994396  0.6761065863397961  0.8597538064162384  1.0000
  O   O2        1.0  0.3648785255256644  0.8837137360209059  0.36842514091732553  1.0000
  O   O3        1.0  0.6517480277286896  0.8263402480724233  0.6954620556251507  1.0000
  O   O4        1.0  0.9953304329424567  0.01924789993392162  0.30963113334338715  1.0000
  O   O5        1.0  0.6616990240563553  0.16836601419990083  0.5187944370189324  1.0000
  O   O6        1.0  0.23313437836386  0.4418672491252696  0.6100394775003861  1.0000
  O   O7        1.0  0.10001727419556428  0.18327911124062513  0.1219884037823884  1.0000
  O   O8        1.0  0.7956882917121264  0.5967650270087466  0.7033927731603005  1.0000
  O   O9        1.0  0.24559684158043835  0.14581519064002285  0.7123674231133502  1.0000
  O   O10       1.0  0.0734450233525375  0.46947097939423893  0.3199527991635858  1.0000
data_image26
_chemical_formula_structural       Cu2C6N4O10
_chemical_formula_sum              "Cu2 C6 N4 O10"
_cell_length_a       6.950721000000001
_cell_length_b       7.113486077992492
_cell_length_c       8.6539786637408
_cell_angle_alpha    105.43300670560022
_cell_angle_beta     90.64948243757532
_cell_angle_gamma    112.19062950933201

_space_group_name_H-M_alt    "P 1"
_space_group_IT_number       1

loop_
  _space_group_symop_operation_xyz
  'x, y, z'

loop_
  _atom_site_type_symbol
  _atom_site_label
  _atom_site_symmetry_multiplicity
  _atom_site_fract_x
  _atom_site_fract_y
  _atom_site_fract_z
  _atom_site_occupancy
  Cu  Cu1       1.0  0.026933777793252123  0.8547297966412681  0.9531652971445201  1.0000
  Cu  Cu2       1.0  0.9000648584575508  0.8244927728806362  0.2911294906138017  1.0000
  C   C1        1.0  0.31940686622565634  0.5672939556519939  0.8318438866249165  1.0000
  C   C2        1.0  0.6682278692300266  0.10815741962092629  0.5231994072829326  1.0000
  C   C3        1.0  0.715888177378452  0.7101348129304702  0.6522687883873428  1.0000
  C   C4        1.0  0.041046211219128874  0.07827050968482818  0.18418534479736456  1.0000
  C   C5        1.0  0.2046666047980811  0.052450386293121855  0.740031639007026  1.0000
  C   C6        1.0  0.9710370125648571  0.6150834568852502  0.26531591377414565  1.0000
  N   N1        1.0  0.4572439220931937  0.23363131692605016  0.33128524165534623  1.0000
  N   N2        1.0  0.6340109342616125  0.18903102755375545  0.9622722097247308  1.0000
  N   N3        1.0  0.5551062410390397  0.2888262358776234  0.24208620044316637  1.0000
  N   N4        1.0  0.6605034408489545  0.046465326075015634  0.8944177836437931  1.0000
  O   O1        1.0  0.21887589306532113  0.6304238785545286  0.9260258547657471  1.0000
  O   O2        1.0  0.4875849743799259  0.023115412747276354  0.5016134142715439  1.0000
  O   O3        1.0  0.6976486913519463  0.775752847125144  0.5478167558677085  1.0000
  O   O4        1.0  0.03788123522233318  0.1367441734992294  0.32812997757578993  1.0000
  O   O5        1.0  0.8459432274977722  0.23118226760074045  0.5292937346268759  1.0000
  O   O6        1.0  0.40283597414616235  0.5569924706690084  0.7126705852173707  1.0000
  O   O7        1.0  0.04757488297910345  0.14064678025227884  0.0685750589098395  1.0000
  O   O8        1.0  0.7504717115043557  0.5997347561912458  0.7481584022477004  1.0000
  O   O9        1.0  0.09097192022176906  0.9317077207970936  0.6233766243432397  1.0000
  O   O10       1.0  0.03889500009517182  0.4901058604259066  0.28968850836481796  1.0000
data_image27
_chemical_formula_structural       Cu2C6N4O10
_chemical_formula_sum              "Cu2 C6 N4 O10"
_cell_length_a       6.950721000000001
_cell_length_b       7.113486077992492
_cell_length_c       8.6539786637408
_cell_angle_alpha    105.43300670560022
_cell_angle_beta     90.64948243757532
_cell_angle_gamma    112.19062950933201

_space_group_name_H-M_alt    "P 1"
_space_group_IT_number       1

loop_
  _space_group_symop_operation_xyz
  'x, y, z'

loop_
  _atom_site_type_symbol
  _atom_site_label
  _atom_site_symmetry_multiplicity
  _atom_site_fract_x
  _atom_site_fract_y
  _atom_site_fract_z
  _atom_site_occupancy
  Cu  Cu1       1.0  0.00637230092009089  0.8367032312535168  0.9462749509334445  1.0000
  Cu  Cu2       1.0  0.9501952567501052  0.9067699411059361  0.3012839476696707  1.0000
  C   C1        1.0  0.263667370085002  0.582829052005244  0.855874131051622  1.0000
  C   C2        1.0  0.6649528902182731  0.17105132298602554  0.6097434249657911  1.0000
  C   C3        1.0  0.630504985817059  0.6101565977154721  0.601575879878006  1.0000
  C   C4        1.0  0.09275910842261069  0.1316898323542639  0.11331345793353212  1.0000
  C   C5        1.0  0.10758592546910865  0.912408997227126  0.780571367381124  1.0000
  C   C6        1.0  0.0036924427154120796  0.6731693098035018  0.17892245930045433  1.0000
  N   N1        1.0  0.5387706059901898  0.21817683189337456  0.3296032488439488  1.0000
  N   N2        1.0  0.5165028048956086  0.06996551208783663  0.9388420432007166  1.0000
  N   N3        1.0  0.7075870033005808  0.3320495090854749  0.33938252210151987  1.0000
  N   N4        1.0  0.5905976534106248  0.9562762929973961  0.9054650624314854  1.0000
  O   O1        1.0  0.301168002373715  0.6350480693331673  0.006555471097320575  1.0000
  O   O2        1.0  0.4938158402531932  0.023759105589100882  0.5936600582137153  1.0000
  O   O3        1.0  0.5910243018424848  0.6621472203739831  0.4876350482714607  1.0000
  O   O4        1.0  0.14022487150849336  0.16874530545250743  0.2710686325129188  1.0000
  O   O5        1.0  0.8412128379496165  0.1783150160489233  0.6116968943815823  1.0000
  O   O6        1.0  0.26382977481120307  0.5376508212917835  0.7123780870142575  1.0000
  O   O7        1.0  0.12494791925847802  0.25186902812170064  0.019904221984233805  1.0000
  O   O8        1.0  0.6709789110415219  0.539628029730773  0.6959773480240617  1.0000
  O   O9        1.0  0.14111794470272446  0.9456876769391463  0.6596955935993288  1.0000
  O   O10       1.0  0.00998532437986307  0.5174992999178851  0.17460536022878279  1.0000
data_image28
_chemical_formula_structural       Cu2C6N4O10
_chemical_formula_sum              "Cu2 C6 N4 O10"
_cell_length_a       6.950721000000001
_cell_length_b       7.113486077992492
_cell_length_c       8.6539786637408
_cell_angle_alpha    105.43300670560022
_cell_angle_beta     90.64948243757532
_cell_angle_gamma    112.19062950933201

_space_group_name_H-M_alt    "P 1"
_space_group_IT_number       1

loop_
  _space_group_symop_operation_xyz
  'x, y, z'

loop_
  _atom_site_type_symbol
  _atom_site_label
  _atom_site_symmetry_multiplicity
  _atom_site_fract_x
  _atom_site_fract_y
  _atom_site_fract_z
  _atom_site_occupancy
  Cu  Cu1       1.0  0.9650748635897903  0.7469290513687807  0.9414379399044269  1.0000
  Cu  Cu2       1.0  0.0338586541347572  0.9664607314267833  0.2794032942824473  1.0000
  C   C1        1.0  0.2672660775930916  0.6127314145945105  0.8101383481093197  1.0000
  C   C2        1.0  0.6873750162310353  0.09182535175738149  0.6115011195796941  1.0000
  C   C3        1.0  0.5694208731226609  0.49711541819756266  0.6164760570752511  1.0000
  C   C4        1.0  0.063455683887635  0.22688087118830347  0.11907547874266879  1.0000
  C   C5        1.0  0.062491033635099516  0.8422928443360984  0.7618543861334512  1.0000
  C   C6        1.0  0.9538725682172146  0.6977444464831962  0.15476947257952642  1.0000
  N   N1        1.0  0.6972405932367279  0.2525392980931774  0.3389544007507773  1.0000
  N   N2        1.0  0.5229225669042585  0.1797040373928136  0.9955181056329174  1.0000
  N   N3        1.0  0.842221371279551  0.32831453675701805  0.426303450894141  1.0000
  N   N4        1.0  0.6544158750944863  0.1512972564541295  0.05101524273761235  1.0000
  O   O1        1.0  0.404812476702798  0.6731365457034927  0.9170377668622488  1.0000
  O   O2        1.0  0.4978827365463762  0.9536058056335032  0.5635289915757836  1.0000
  O   O3        1.0  0.5758370818891176  0.5880817555220665  0.5068726368737831  1.0000
  O   O4        1.0  0.14628425008055065  0.36008494531212665  0.24066084989092656  1.0000
  O   O5        1.0  0.8443742311140363  0.22131142291167705  0.6942326440201811  1.0000
  O   O6        1.0  0.151365771292672  0.5644224424921911  0.6902336517553515  1.0000
  O   O7        1.0  0.03774968112612121  0.13350716646237992  0.9850782924787094  1.0000
  O   O8        1.0  0.5808022776971079  0.4233593660004694  0.7204438026784072  1.0000
  O   O9        1.0  0.09334266981057766  0.9453450582471924  0.6679008436579209  1.0000
  O   O10       1.0  0.8777873472166559  0.5081407378452037  0.14022134703630074  1.0000
data_image29
_chemical_formula_structural       Cu2C6N4O10
_chemical_formula_sum              "Cu2 C6 N4 O10"
_cell_length_a       6.950721000000001
_cell_length_b       7.113486077992492
_cell_length_c       8.6539786637408
_cell_angle_alpha    105.43300670560022
_cell_angle_beta     90.64948243757532
_cell_angle_gamma    112.19062950933201

_space_group_name_H-M_alt    "P 1"
_space_group_IT_number       1

loop_
  _space_group_symop_operation_xyz
  'x, y, z'

loop_
  _atom_site_type_symbol
  _atom_site_label
  _atom_site_symmetry_multiplicity
  _atom_site_fract_x
  _atom_site_fract_y
  _atom_site_fract_z
  _atom_site_occupancy
  Cu  Cu1       1.0  0.9048811465038411  0.7937646761657327  0.9576962969094241  1.0000
  Cu  Cu2       1.0  0.12830461043718036  0.01494225909912736  0.21926099085129264  1.0000
  C   C1        1.0  0.2165744512088645  0.5060103286494388  0.7705511535776821  1.0000
  C   C2        1.0  0.6612305899675771  0.012999786604161123  0.6715416914362509  1.0000
  C   C3        1.0  0.5547332465463881  0.45942957880357904  0.5986852845688715  1.0000
  C   C4        1.0  0.23138047397280434  0.3071701451714661  0.14199290178798302  1.0000
  C   C5        1.0  0.9498128341911586  0.8473703502550145  0.7697956011763346  1.0000
  C   C6        1.0  0.9947742506024184  0.7455237959220768  0.168153635519506  1.0000
  N   N1        1.0  0.8523832688488959  0.2991507766642536  0.48328323675449975  1.0000
  N   N2        1.0  0.4941523486398972  0.1299615102009215  0.9881880355532707  1.0000
  N   N3        1.0  0.7835500789675609  0.32257127258630747  0.3761668375274253  1.0000
  N   N4        1.0  0.5257764195156744  0.07245627387365583  0.08697320793086183  1.0000
  O   O1        1.0  0.3274805899290532  0.6437875421762328  0.8838945912631923  1.0000
  O   O2        1.0  0.5156860517865107  0.9185171124271269  0.5539672116901379  1.0000
  O   O3        1.0  0.6210563213859597  0.6074273917738182  0.5440723611113747  1.0000
  O   O4        1.0  0.38203179412299837  0.4474069367838498  0.1334046622831947  1.0000
  O   O5        1.0  0.7729497767526416  0.11455000223078149  0.80809301064236  1.0000
  O   O6        1.0  0.11914477666108474  0.3656457363690398  0.6670362160705138  1.0000
  O   O7        1.0  0.042515559837597625  0.2552312418720879  0.10793655467323071  1.0000
  O   O8        1.0  0.4999661273454307  0.3064322480540803  0.6406011775197684  1.0000
  O   O9        1.0  0.9853313091060044  0.9014583242347237  0.6497431585834995  1.0000
  O   O10       1.0  0.8637022442893063  0.581854714545119  0.1715064029428536  1.0000
data_image30
_chemical_formula_structural       Cu2C6N4O10
_chemical_formula_sum              "Cu2 C6 N4 O10"
_cell_length_a       6.950721000000001
_cell_length_b       7.113486077992492
_cell_length_c       8.6539786637408
_cell_angle_alpha    105.43300670560022
_cell_angle_beta     90.64948243757532
_cell_angle_gamma    112.19062950933201

_space_group_name_H-M_alt    "P 1"
_space_group_IT_number       1

loop_
  _space_group_symop_operation_xyz
  'x, y, z'

loop_
  _atom_site_type_symbol
  _atom_site_label
  _atom_site_symmetry_multiplicity
  _atom_site_fract_x
  _atom_site_fract_y
  _atom_site_fract_z
  _atom_site_occupancy
  Cu  Cu1       1.0  0.8814551563638424  0.811525032084181  0.9381934184891428  1.0000
  Cu  Cu2       1.0  0.15001234850082243  0.07700744570943835  0.2087589893364352  1.0000
  C   C1        1.0  0.19405432580395587  0.4055842747935838  0.7470810316156958  1.0000
  C   C2        1.0  0.5405889395728601  0.9046333867569474  0.6942792502508707  1.0000
  C   C3        1.0  0.547704196271869  0.4241222807847832  0.6406600775464524  1.0000
  C   C4        1.0  0.34423581439402173  0.4895945393175569  0.14856954604388053  1.0000
  C   C5        1.0  0.0803844480191025  0.838313489407637  0.7775331646615009  1.0000
  C   C6        1.0  0.9130628164590411  0.7617823034867107  0.1550196262457489  1.0000
  N   N1        1.0  0.8855630007828821  0.3014145852270632  0.42346041938774354  1.0000
  N   N2        1.0  0.4429979431407062  0.0669782764924367  0.9865208129708444  1.0000
  N   N3        1.0  0.7389864263946135  0.2768177212010318  0.3561503561861337  1.0000
  N   N4        1.0  0.35216036160627984  0.07520938778555819  0.0962960978711954  1.0000
  O   O1        1.0  0.29858407272485915  0.5972110477077633  0.7949724267673626  1.0000
  O   O2        1.0  0.4307405536908531  0.8795407183295434  0.5834106396921782  1.0000
  O   O3        1.0  0.49164995734278494  0.49180121212818184  0.5495345850522991  1.0000
  O   O4        1.0  0.4701395652292411  0.524560364248716  0.05676669454394921  1.0000
  O   O5        1.0  0.7082591280231579  0.9995323301147101  0.79767767096478  1.0000
  O   O6        1.0  0.12569059874447616  0.21309642538056248  0.7151176126738574  1.0000
  O   O7        1.0  0.26698540884239935  0.5557662975476376  0.280708410848886  1.0000
  O   O8        1.0  0.6380276479238705  0.342475497418549  0.6990420581476868  1.0000
  O   O9        1.0  0.034089914564693825  0.7418176716751228  0.6402266454334614  1.0000
  O   O10       1.0  0.86953643353427  0.6140953262358195  0.19093348927811293  1.0000
data_image31
_chemical_formula_structural       Cu2C6N4O10
_chemical_formula_sum              "Cu2 C6 N4 O10"
_cell_length_a       6.950721000000001
_cell_length_b       7.113486077992492
_cell_length_c       8.6539786637408
_cell_angle_alpha    105.43300670560022
_cell_angle_beta     90.64948243757532
_cell_angle_gamma    112.19062950933201

_space_group_name_H-M_alt    "P 1"
_space_group_IT_number       1

loop_
  _space_group_symop_operation_xyz
  'x, y, z'

loop_
  _atom_site_type_symbol
  _atom_site_label
  _atom_site_symmetry_multiplicity
  _atom_site_fract_x
  _atom_site_fract_y
  _atom_site_fract_z
  _atom_site_occupancy
  Cu  Cu1       1.0  0.7863248147463648  0.7801140252700199  0.8781785824329215  1.0000
  Cu  Cu2       1.0  0.09200006938068857  0.10435088375442922  0.24001342018673183  1.0000
  C   C1        1.0  0.22368165093633277  0.3604731569261433  0.7720906346249369  1.0000
  C   C2        1.0  0.5042097336433026  0.8943140500768735  0.6910795874980128  1.0000
  C   C3        1.0  0.6937356014182897  0.433830473025813  0.6022215626745339  1.0000
  C   C4        1.0  0.49630324183000596  0.6085010418376635  0.20588794121603998  1.0000
  C   C5        1.0  0.9568178412706353  0.7719444817370494  0.7291800635049224  1.0000
  C   C6        1.0  0.990557206789513  0.8126765582065789  0.18150820365052467  1.0000
  N   N1        1.0  0.841472819909923  0.21458029126079023  0.34335659711440075  1.0000
  N   N2        1.0  0.524831462943732  0.16580517742927348  0.1144350289292997  1.0000
  N   N3        1.0  0.6992624794430782  0.07545444633949416  0.3487333866887272  1.0000
  N   N4        1.0  0.3648783661297328  0.16152374845096107  0.13766514314802492  1.0000
  O   O1        1.0  0.17700736013365226  0.5055884418842512  0.7947610919576061  1.0000
  O   O2        1.0  0.46656696286031013  0.9426762929302921  0.5795796785864924  1.0000
  O   O3        1.0  0.5596682882661246  0.4428769809108387  0.5358127358529109  1.0000
  O   O4        1.0  0.38365598655211175  0.5179993386699533  0.06971517117296701  1.0000
  O   O5        1.0  0.5263575213773772  0.8168415197077813  0.7816078204559849  1.0000
  O   O6        1.0  0.2938882458473043  0.22916954354534808  0.7358360297207814  1.0000
  O   O7        1.0  0.5775812070235878  0.6968302651416247  0.34055687318211114  1.0000
  O   O8        1.0  0.7989486153830833  0.40379099780492567  0.6965527604506825  1.0000
  O   O9        1.0  0.06704127127443371  0.8358059625108639  0.634847726665143  1.0000
  O   O10       1.0  0.8983927806797918  0.6275994263493283  0.16650752078726996  1.0000
data_image32
_chemical_formula_structural       Cu2C6N4O10
_chemical_formula_sum              "Cu2 C6 N4 O10"
_cell_length_a       6.950721000000001
_cell_length_b       7.113486077992492
_cell_length_c       8.6539786637408
_cell_angle_alpha    105.43300670560022
_cell_angle_beta     90.64948243757532
_cell_angle_gamma    112.19062950933201

_space_group_name_H-M_alt    "P 1"
_space_group_IT_number       1

loop_
  _space_group_symop_operation_xyz
  'x, y, z'

loop_
  _atom_site_type_symbol
  _atom_site_label
  _atom_site_symmetry_multiplicity
  _atom_site_fract_x
  _atom_site_fract_y
  _atom_site_fract_z
  _atom_site_occupancy
  Cu  Cu1       1.0  0.7424179087514311  0.7604590656292689  0.8684591165957228  1.0000
  Cu  Cu2       1.0  0.0932915914561736  0.08968071700828523  0.21271733548962832  1.0000
  C   C1        1.0  0.22891489480518037  0.45930803857414043  0.8289175865680874  1.0000
  C   C2        1.0  0.4897493379920326  0.8756602387272034  0.6096457617361245  1.0000
  C   C3        1.0  0.6118862383590842  0.3304830108936879  0.6124588041417968  1.0000
  C   C4        1.0  0.6015174652892608  0.6754521076221736  0.25635579147969  1.0000
  C   C5        1.0  0.8898829452512362  0.77576517673053  0.7304462451301938  1.0000
  C   C6        1.0  0.013388809693316569  0.7593502049566541  0.1670805317991167  1.0000
  N   N1        1.0  0.8662902330999225  0.0943731419853003  0.3275725651801665  1.0000
  N   N2        1.0  0.47740207964809034  0.18486051570999362  0.1026245854583427  1.0000
  N   N3        1.0  0.7281156476151699  0.12420389463161194  0.300399102311909  1.0000
  N   N4        1.0  0.334560598010198  0.1909066230884966  0.14303438715544242  1.0000
  O   O1        1.0  0.18413641958689844  0.6034103195796191  0.8525036885874743  1.0000
  O   O2        1.0  0.48640692693638676  0.8940279498758924  0.47479546858622346  1.0000
  O   O3        1.0  0.5326892551961421  0.4133369851287605  0.5399461086961761  1.0000
  O   O4        1.0  0.47031802399041317  0.7023250572451458  0.17446231438263615  1.0000
  O   O5        1.0  0.48230007498979127  0.8494129507010126  0.7399337300156781  1.0000
  O   O6        1.0  0.256285905709195  0.30346739635593606  0.8205198515497136  1.0000
  O   O7        1.0  0.7099218505266063  0.6396410170988056  0.35122616315379274  1.0000
  O   O8        1.0  0.7064003513502808  0.2512237347536016  0.6560654901768042  1.0000
  O   O9        1.0  0.04939670494282623  0.8568710453661041  0.683421600697651  1.0000
  O   O10       1.0  0.07703227032146863  0.6620336478743039  0.23349740720080248  1.0000
data_image33
_chemical_formula_structural       Cu2C6N4O10
_chemical_formula_sum              "Cu2 C6 N4 O10"
_cell_length_a       6.950721000000001
_cell_length_b       7.113486077992492
_cell_length_c       8.6539786637408
_cell_angle_alpha    105.43300670560022
_cell_angle_beta     90.64948243757532
_cell_angle_gamma    112.19062950933201

_space_group_name_H-M_alt    "P 1"
_space_group_IT_number       1

loop_
  _space_group_symop_operation_xyz
  'x, y, z'

loop_
  _atom_site_type_symbol
  _atom_site_label
  _atom_site_symmetry_multiplicity
  _atom_site_fract_x
  _atom_site_fract_y
  _atom_site_fract_z
  _atom_site_occupancy
  Cu  Cu1       1.0  0.7834201954564768  0.8509784171099001  0.9087507505425311  1.0000
  Cu  Cu2       1.0  0.021565853948488548  0.9852217148988796  0.25064803960695264  1.0000
  C   C1        1.0  0.2436341686969252  0.5594984908437214  0.8391597023758508  1.0000
  C   C2        1.0  0.5319139923980687  0.8427053513450634  0.601112627852708  1.0000
  C   C3        1.0  0.5028685565580628  0.28955495414961085  0.6097355151208155  1.0000
  C   C4        1.0  0.635163760798326  0.6309522066690827  0.15851774114750264  1.0000
  C   C5        1.0  0.01994321712897481  0.9023531228919901  0.7227568142148646  1.0000
  C   C6        1.0  0.1525432036679735  0.7641973890982282  0.29054766679852606  1.0000
  N   N1        1.0  0.8250420858153554  0.1227054898787796  0.3205893209509967  1.0000
  N   N2        1.0  0.4529832750247622  0.16622071777162573  0.0895096734991968  1.0000
  N   N3        1.0  0.8424899957374542  0.28862434625891403  0.3863002706744165  1.0000
  N   N4        1.0  0.346902075456227  0.233487718409094  0.04250337140534917  1.0000
  O   O1        1.0  0.131881717730658  0.6534090709791355  0.8699907912655197  1.0000
  O   O2        1.0  0.4739884433817293  0.823542739926569  0.47229423437110735  1.0000
  O   O3        1.0  0.39193842066372375  0.27442701701807903  0.49804867783550927  1.0000
  O   O4        1.0  0.6025242967835851  0.6688096043187293  0.034701360782101565  1.0000
  O   O5        1.0  0.5345026529857522  0.8339995198189184  0.7416948081163974  1.0000
  O   O6        1.0  0.33991002338999987  0.4465132911137228  0.8283640020534369  1.0000
  O   O7        1.0  0.6643092182843008  0.5905704361209441  0.27328521813596485  1.0000
  O   O8        1.0  0.6645960855377346  0.3199597747227606  0.7008048833921524  1.0000
  O   O9        1.0  0.9383975962610627  0.760638813770265  0.6090964981500528  1.0000
  O   O10       1.0  0.09667339007308869  0.5916993330573367  0.2053581746087285  1.0000
data_image34
_chemical_formula_structural       Cu2C6N4O10
_chemical_formula_sum              "Cu2 C6 N4 O10"
_cell_length_a       6.950721000000001
_cell_length_b       7.113486077992492
_cell_length_c       8.6539786637408
_cell_angle_alpha    105.43300670560022
_cell_angle_beta     90.64948243757532
_cell_angle_gamma    112.19062950933201

_space_group_name_H-M_alt    "P 1"
_space_group_IT_number       1

loop_
  _space_group_symop_operation_xyz
  'x, y, z'

loop_
  _atom_site_type_symbol
  _atom_site_label
  _atom_site_symmetry_multiplicity
  _atom_site_fract_x
  _atom_site_fract_y
  _atom_site_fract_z
  _atom_site_occupancy
  Cu  Cu1       1.0  0.9304751932622359  0.9541024501208815  0.9062719792328001  1.0000
  Cu  Cu2       1.0  0.06332922400472318  0.9104926627852177  0.2295552436951692  1.0000
  C   C1        1.0  0.1685760117719272  0.5384579820851518  0.8714098727436858  1.0000
  C   C2        1.0  0.48865669285596125  0.8796439750467124  0.6224383479372739  1.0000
  C   C3        1.0  0.39834625570081045  0.2930295845302838  0.5816148139612022  1.0000
  C   C4        1.0  0.5513208655119559  0.6054175885251898  0.1987540955279379  1.0000
  C   C5        1.0  0.9349524415337076  0.8289082174840523  0.6541711230625861  1.0000
  C   C6        1.0  0.1613513660100586  0.7214985720916153  0.2572738024288553  1.0000
  N   N1        1.0  0.9619609347691315  0.12976638799662737  0.3232859649602048  1.0000
  N   N2        1.0  0.3423756677418941  0.036997420070714826  0.037505114955333506  1.0000
  N   N3        1.0  0.8485932442973598  0.20685412441520618  0.3162622830575951  1.0000
  N   N4        1.0  0.2604150030488257  0.1273110456945279  0.0008610020681973324  1.0000
  O   O1        1.0  0.02291983830297712  0.5784186781727554  0.8342303936230636  1.0000
  O   O2        1.0  0.5746310894561246  0.9071423715225155  0.5182114815501928  1.0000
  O   O3        1.0  0.2674431191946821  0.227629892022728  0.4722516795125694  1.0000
  O   O4        1.0  0.6792824891748954  0.7537812707770293  0.1739599502105827  1.0000
  O   O5        1.0  0.45773145275756677  0.8740547234505487  0.7632501795012459  1.0000
  O   O6        1.0  0.33195387830446066  0.5445647950605433  0.8999531960651517  1.0000
  O   O7        1.0  0.4400781880000951  0.4547231275917212  0.23285797213898918  1.0000
  O   O8        1.0  0.5447444957503406  0.329394253085896  0.6854470968671387  1.0000
  O   O9        1.0  0.9695992003014992  0.9308793572172187  0.569870302346125  1.0000
  O   O10       1.0  0.13606208418588062  0.615958054209564  0.3453660667415207  1.0000
data_image35
_chemical_formula_structural       Cu2C6N4O10
_chemical_formula_sum              "Cu2 C6 N4 O10"
_cell_length_a       6.950721000000001
_cell_length_b       7.113486077992492
_cell_length_c       8.6539786637408
_cell_angle_alpha    105.43300670560022
_cell_angle_beta     90.64948243757532
_cell_angle_gamma    112.19062950933201

_space_group_name_H-M_alt    "P 1"
_space_group_IT_number       1

loop_
  _space_group_symop_operation_xyz
  'x, y, z'

loop_
  _atom_site_type_symbol
  _atom_site_label
  _atom_site_symmetry_multiplicity
  _atom_site_fract_x
  _atom_site_fract_y
  _atom_site_fract_z
  _atom_site_occupancy
  Cu  Cu1       1.0  0.04090397479029617  0.04041673668386814  0.8536933183443701  1.0000
  Cu  Cu2       1.0  0.16436468628824039  0.9525788335025316  0.3108879916497906  1.0000
  C   C1        1.0  0.09748206099264155  0.4930197959611701  0.8442057028130725  1.0000
  C   C2        1.0  0.5294409360483318  0.9792994697214479  0.6754150025495095  1.0000
  C   C3        1.0  0.3665009556452079  0.293557711665538  0.5555821939425833  1.0000
  C   C4        1.0  0.47988465967311394  0.5033443369844073  0.12828490179642535  1.0000
  C   C5        1.0  0.9411742178375253  0.8974946288002615  0.6309117370595617  1.0000
  C   C6        1.0  0.08693225563245982  0.6870499980408162  0.31707867315936134  1.0000
  N   N1        1.0  0.8683393683698588  0.0216165393366504  0.2787048203610701  1.0000
  N   N2        1.0  0.3715996651679603  0.07085438628448881  0.119217167657144  1.0000
  N   N3        1.0  0.7981147280118024  0.13428732719703232  0.32733645294732283  1.0000
  N   N4        1.0  0.21693173370678287  0.00016162042161904644  0.06083111652872624  1.0000
  O   O1        1.0  0.9834131207847573  0.45485715142247085  0.7230259241934319  1.0000
  O   O2        1.0  0.6323922011336448  0.9706018384982472  0.5640290156275023  1.0000
  O   O3        1.0  0.315132992021993  0.3771051397786922  0.47076090461618547  1.0000
  O   O4        1.0  0.6607434352516258  0.6135444274374784  0.12346033194071111  1.0000
  O   O5        1.0  0.40153192238303154  0.9509015329630875  0.7609028106544664  1.0000
  O   O6        1.0  0.214261334927401  0.6001781029516013  0.9660142139465516  1.0000
  O   O7        1.0  0.3114914414702762  0.42462083077173607  0.13875037202415563  1.0000
  O   O8        1.0  0.4368181213618517  0.28883102961734075  0.681790123275228  1.0000
  O   O9        1.0  0.8619384898705861  0.7411915829605193  0.5266148621745417  1.0000
  O   O10       1.0  0.054632100146846475  0.5322321028643981  0.3589668104022232  1.0000
data_image36
_chemical_formula_structural       Cu2C6N4O10
_chemical_formula_sum              "Cu2 C6 N4 O10"
_cell_length_a       6.950721000000001
_cell_length_b       7.113486077992492
_cell_length_c       8.6539786637408
_cell_angle_alpha    105.43300670560022
_cell_angle_beta     90.64948243757532
_cell_angle_gamma    112.19062950933201

_space_group_name_H-M_alt    "P 1"
_space_group_IT_number       1

loop_
  _space_group_symop_operation_xyz
  'x, y, z'

loop_
  _atom_site_type_symbol
  _atom_site_label
  _atom_site_symmetry_multiplicity
  _atom_site_fract_x
  _atom_site_fract_y
  _atom_site_fract_z
  _atom_site_occupancy
  Cu  Cu1       1.0  0.11849272475743033  0.04193108401077117  0.8420098189027362  1.0000
  Cu  Cu2       1.0  0.15695362881736757  0.9651828161379168  0.3149599107894135  1.0000
  C   C1        1.0  0.9878364926226821  0.45906832787028734  0.8213356049076157  1.0000
  C   C2        1.0  0.5328249440916943  0.9413999439359787  0.7534802948796232  1.0000
  C   C3        1.0  0.310297767721181  0.4231217999360981  0.5871357000338884  1.0000
  C   C4        1.0  0.5653295708124845  0.4975238144962897  0.014089950276441589  1.0000
  C   C5        1.0  0.983936247220651  0.8482998662000166  0.6507434302359819  1.0000
  C   C6        1.0  0.11942231677784686  0.6414512194163525  0.26896783564912496  1.0000
  N   N1        1.0  0.7623308587297603  0.10954242530567722  0.32349730305117264  1.0000
  N   N2        1.0  0.3024196645252468  0.18653246310350302  0.20995386965490415  1.0000
  N   N3        1.0  0.6926420136075901  0.9778886583154737  0.37059718088836274  1.0000
  N   N4        1.0  0.23376940336794094  0.1702287133472844  0.0908895692124271  1.0000
  O   O1        1.0  0.9672280213870283  0.3217740448291409  0.7006824791063742  1.0000
  O   O2        1.0  0.6376679496908627  0.01740525422247252  0.6626983245112192  1.0000
  O   O3        1.0  0.29389776525612366  0.4577646842448384  0.45600369424129317  1.0000
  O   O4        1.0  0.661900214267283  0.3994135901023792  0.026186059130531084  1.0000
  O   O5        1.0  0.46365394291627543  0.8597349916373418  0.8464775652123635  1.0000
  O   O6        1.0  0.04692449262805781  0.5613980563729251  0.9581072472637393  1.0000
  O   O7        1.0  0.4998660710301764  0.6263121144963135  0.021986433052388676  1.0000
  O   O8        1.0  0.33109815073718163  0.3548413504930097  0.6912583456523287  1.0000
  O   O9        1.0  0.8656492683081971  0.6746954310274484  0.6189360150645191  1.0000
  O   O10       1.0  0.05446957400625001  0.4656301277410449  0.2187967514357802  1.0000
data_image37
_chemical_formula_structural       Cu2C6N4O10
_chemical_formula_sum              "Cu2 C6 N4 O10"
_cell_length_a       6.950721000000001
_cell_length_b       7.113486077992492
_cell_length_c       8.6539786637408
_cell_angle_alpha    105.43300670560022
_cell_angle_beta     90.64948243757532
_cell_angle_gamma    112.19062950933201

_space_group_name_H-M_alt    "P 1"
_space_group_IT_number       1

loop_
  _space_group_symop_operation_xyz
  'x, y, z'

loop_
  _atom_site_type_symbol
  _atom_site_label
  _atom_site_symmetry_multiplicity
  _atom_site_fract_x
  _atom_site_fract_y
  _atom_site_fract_z
  _atom_site_occupancy
  Cu  Cu1       1.0  0.11392084352288068  0.009148858809783667  0.8249955428679103  1.0000
  Cu  Cu2       1.0  0.15657245982414045  0.9342680143932278  0.2961203969362363  1.0000
  C   C1        1.0  0.023891400707186424  0.4743187144635404  0.822972417111564  1.0000
  C   C2        1.0  0.5241321095288135  0.9156565658635406  0.8234401879649397  1.0000
  C   C3        1.0  0.45852401310124985  0.5139398475200282  0.5091026533218956  1.0000
  C   C4        1.0  0.5368000616107409  0.49863155168728124  0.007712483650248082  1.0000
  C   C5        1.0  0.9763802568587664  0.7553420433212368  0.6684616667707756  1.0000
  C   C6        1.0  0.1303282497919765  0.6525394554683673  0.34226467703086566  1.0000
  N   N1        1.0  0.5715091978109881  0.046805307444164314  0.4059935484838612  1.0000
  N   N2        1.0  0.19669581458020635  0.12589575204302683  0.2006241798316128  1.0000
  N   N3        1.0  0.7209600470748804  0.05487183547525478  0.3573011838176451  1.0000
  N   N4        1.0  0.1618291016138571  0.20234284651835543  0.09316038601741805  1.0000
  O   O1        1.0  0.08164184251849292  0.38380186793220405  0.7186616600652959  1.0000
  O   O2        1.0  0.5737853404994456  0.03927568704254947  0.7484155774858794  1.0000
  O   O3        1.0  0.5412848186817849  0.6616792620223205  0.4460754021133811  1.0000
  O   O4        1.0  0.4340282183488041  0.328453815425906  0.9460190054550395  1.0000
  O   O5        1.0  0.4532636890762334  0.839318874035894  0.9229725945961835  1.0000
  O   O6        1.0  0.9516178234435358  0.5630336899963436  0.9214589332379994  1.0000
  O   O7        1.0  0.6524890747853712  0.6814953630299054  0.07016872589095202  1.0000
  O   O8        1.0  0.42439993113117486  0.38788109176596863  0.5883530735062229  1.0000
  O   O9        1.0  0.91273521879307  0.6328442936025122  0.54644875801316  1.0000
  O   O10       1.0  0.9997175690051101  0.4865234074076225  0.3254833315826491  1.0000
data_image38
_chemical_formula_structural       Cu2C6N4O10
_chemical_formula_sum              "Cu2 C6 N4 O10"
_cell_length_a       6.950721000000001
_cell_length_b       7.113486077992492
_cell_length_c       8.6539786637408
_cell_angle_alpha    105.43300670560022
_cell_angle_beta     90.64948243757532
_cell_angle_gamma    112.19062950933201

_space_group_name_H-M_alt    "P 1"
_space_group_IT_number       1

loop_
  _space_group_symop_operation_xyz
  'x, y, z'

loop_
  _atom_site_type_symbol
  _atom_site_label
  _atom_site_symmetry_multiplicity
  _atom_site_fract_x
  _atom_site_fract_y
  _atom_site_fract_z
  _atom_site_occupancy
  Cu  Cu1       1.0  0.12508086101795968  0.10992935515049096  0.8194947165354736  1.0000
  Cu  Cu2       1.0  0.14663980586026218  0.8877116355480468  0.2694344575792458  1.0000
  C   C1        1.0  0.10765328097738973  0.4931782158074035  0.8375444123872434  1.0000
  C   C2        1.0  0.531321036072571  0.012787715411628264  0.8923491222872217  1.0000
  C   C3        1.0  0.5031803476151703  0.44141863601783937  0.4834697788383657  1.0000
  C   C4        1.0  0.49686581963667276  0.4418308518464287  0.02189173109361483  1.0000
  C   C5        1.0  0.008786016992016163  0.8102912905301765  0.7710906443168287  1.0000
  C   C6        1.0  0.06717923018920173  0.6204829794533299  0.2897709167198225  1.0000
  N   N1        1.0  0.7263842515211806  0.04397035888647433  0.32505605991216985  1.0000
  N   N2        1.0  0.0900951775721438  0.09674224950125554  0.21702710041289253  1.0000
  N   N3        1.0  0.5856303124067487  0.07998926236823461  0.3440838671359935  1.0000
  N   N4        1.0  0.04555457931905704  0.11978331261250252  0.09028946546066008  1.0000
  O   O1        1.0  0.22202124490236524  0.5614061215999222  0.7516439754104532  1.0000
  O   O2        1.0  0.6012663273083056  0.04142741424329399  0.7647427937643001  1.0000
  O   O3        1.0  0.4992841084296642  0.5585250958030057  0.4082452495174792  1.0000
  O   O4        1.0  0.3794648926690014  0.2879960994445725  0.9225353033526843  1.0000
  O   O5        1.0  0.49242184636791264  0.9392239892980588  0.9998778037501016  1.0000
  O   O6        1.0  0.9818750603341204  0.44010117380016395  0.9316944660972113  1.0000
  O   O7        1.0  0.6207925781100847  0.6134675412451005  0.0937986165568192  1.0000
  O   O8        1.0  0.4828422761966883  0.3255784660552391  0.5623017127283478  1.0000
  O   O9        1.0  0.8887982924514013  0.6529655919608913  0.6914734101153924  1.0000
  O   O10       1.0  0.9832183397284501  0.4404407806040017  0.21368012230157404  1.0000
data_image39
_chemical_formula_structural       Cu2C6N4O10
_chemical_formula_sum              "Cu2 C6 N4 O10"
_cell_length_a       6.950721000000001
_cell_length_b       7.113486077992492
_cell_length_c       8.6539786637408
_cell_angle_alpha    105.43300670560022
_cell_angle_beta     90.64948243757532
_cell_angle_gamma    112.19062950933201

_space_group_name_H-M_alt    "P 1"
_space_group_IT_number       1

loop_
  _space_group_symop_operation_xyz
  'x, y, z'

loop_
  _atom_site_type_symbol
  _atom_site_label
  _atom_site_symmetry_multiplicity
  _atom_site_fract_x
  _atom_site_fract_y
  _atom_site_fract_z
  _atom_site_occupancy
  Cu  Cu1       1.0  0.044938257594346886  0.101314767080112  0.8148162386944341  1.0000
  Cu  Cu2       1.0  0.20705054427304673  0.8587700692148226  0.22269860395356167  1.0000
  C   C1        1.0  0.13137464086545347  0.4454705196759417  0.8157112654100642  1.0000
  C   C2        1.0  0.5997899646057794  0.02798603782947695  0.8215728552784523  1.0000
  C   C3        1.0  0.4128700263708324  0.39779489901012044  0.5208330915682112  1.0000
  C   C4        1.0  0.580531212224991  0.5513396554395682  0.03495488087861454  1.0000
  C   C5        1.0  0.9525517891086028  0.7851997640634252  0.7552804174275901  1.0000
  C   C6        1.0  0.005273329867881928  0.6373211684933269  0.2579696839321288  1.0000
  N   N1        1.0  0.7295040980821319  0.9902825409574252  0.3743098566889008  1.0000
  N   N2        1.0  0.13850229931435754  0.07999367792248968  0.11129642049673967  1.0000
  N   N3        1.0  0.5924933732407568  0.023617490031214477  0.40951223999427566  1.0000
  N   N4        1.0  0.09721477086088681  0.20978504503220674  0.19729512148021472  1.0000
  O   O1        1.0  0.2611699800166058  0.6315063909182834  0.8390055911091567  1.0000
  O   O2        1.0  0.5157669546064325  0.9443518353001403  0.6900159491991162  1.0000
  O   O3        1.0  0.4583369939476649  0.47505395660299876  0.41254547066979486  1.0000
  O   O4        1.0  0.4534747317632688  0.3659095591572674  0.029239922922879143  1.0000
  O   O5        1.0  0.6643606348490706  0.13049712296233418  0.9628401128089251  1.0000
  O   O6        1.0  0.9643819779379852  0.34699251951237015  0.8491699569502519  1.0000
  O   O7        1.0  0.7407304996511284  0.6958631485007962  0.06270682648293069  1.0000
  O   O8        1.0  0.3764833658268353  0.31317300067386733  0.6223259380049124  1.0000
  O   O9        1.0  0.8114437946440001  0.6258665935006782  0.7326456636344936  1.0000
  O   O10       1.0  0.9177150314873288  0.4945136750345925  0.31025263333929853  1.0000
data_image40
_chemical_formula_structural       Cu2C6N4O10
_chemical_formula_sum              "Cu2 C6 N4 O10"
_cell_length_a       6.950721000000001
_cell_length_b       7.113486077992492
_cell_length_c       8.6539786637408
_cell_angle_alpha    105.43300670560022
_cell_angle_beta     90.64948243757532
_cell_angle_gamma    112.19062950933201

_space_group_name_H-M_alt    "P 1"
_space_group_IT_number       1

loop_
  _space_group_symop_operation_xyz
  'x, y, z'

loop_
  _atom_site_type_symbol
  _atom_site_label
  _atom_site_symmetry_multiplicity
  _atom_site_fract_x
  _atom_site_fract_y
  _atom_site_fract_z
  _atom_site_occupancy
  Cu  Cu1       1.0  0.003531068811870597  0.06324738070785196  0.7675770111583936  1.0000
  Cu  Cu2       1.0  0.147356210020974  0.8163465414357989  0.25243817355987047  1.0000
  C   C1        1.0  0.1209563004641094  0.5228099005322531  0.892847379845408  1.0000
  C   C2        1.0  0.49950711028871336  0.018335994801448763  0.7888062844100365  1.0000
  C   C3        1.0  0.4251104801170556  0.38136051816160854  0.4361493404153625  1.0000
  C   C4        1.0  0.68595731509728  0.5409260670845701  0.052908994054999006  1.0000
  C   C5        1.0  0.8455059535954244  0.7955473067024561  0.7687926934678142  1.0000
  C   C6        1.0  0.13547824440735545  0.6860673245106746  0.44124634544322167  1.0000
  N   N1        1.0  0.7793127523705836  0.9376691811980604  0.38085322818666834  1.0000
  N   N2        1.0  0.21966700225650448  0.3138516148797339  0.24247991156758014  1.0000
  N   N3        1.0  0.7280852171303123  0.966970697959451  0.2649684585639242  1.0000
  N   N4        1.0  0.15224167826333102  0.14008546225042462  0.16931452314517867  1.0000
  O   O1        1.0  0.29254477599416456  0.6265467552152666  0.9585236440536881  1.0000
  O   O2        1.0  0.5290697019418669  0.08068985187229272  0.6811397532816343  1.0000
  O   O3        1.0  0.5078114755388704  0.5639809502284977  0.43590225359923046  1.0000
  O   O4        1.0  0.5264643227776608  0.4202598171799188  0.06302122197022175  1.0000
  O   O5        1.0  0.5135272062810394  0.9842701999723875  0.917343378763321  1.0000
  O   O6        1.0  0.9541160279657541  0.38727500428570694  0.8028304216871242  1.0000
  O   O7        1.0  0.8099577960381065  0.7083657501922029  0.056694273500589976  1.0000
  O   O8        1.0  0.34245527981384205  0.24515928266314313  0.4827354217081905  1.0000
  O   O9        1.0  0.8225285254864079  0.6456425694814811  0.6700410166416267  1.0000
  O   O10       1.0  0.9602357101780272  0.555500009852983  0.4086526160782574  1.0000
data_image41
_chemical_formula_structural       Cu2C6N4O10
_chemical_formula_sum              "Cu2 C6 N4 O10"
_cell_length_a       6.950721000000001
_cell_length_b       7.113486077992492
_cell_length_c       8.6539786637408
_cell_angle_alpha    105.43300670560022
_cell_angle_beta     90.64948243757532
_cell_angle_gamma    112.19062950933201

_space_group_name_H-M_alt    "P 1"
_space_group_IT_number       1

loop_
  _space_group_symop_operation_xyz
  'x, y, z'

loop_
  _atom_site_type_symbol
  _atom_site_label
  _atom_site_symmetry_multiplicity
  _atom_site_fract_x
  _atom_site_fract_y
  _atom_site_fract_z
  _atom_site_occupancy
  Cu  Cu1       1.0  0.8699981495324132  0.05797757855219565  0.721958502132181  1.0000
  Cu  Cu2       1.0  0.10577116389332708  0.8388648721720601  0.30321980400762594  1.0000
  C   C1        1.0  0.24472464390136633  0.4997137472196942  0.8774538161846345  1.0000
  C   C2        1.0  0.5004947274129418  0.028354845320531785  0.7674246582893698  1.0000
  C   C3        1.0  0.4017321922156455  0.3953188915347583  0.5227328598843958  1.0000
  C   C4        1.0  0.7671516741875506  0.4573656407232063  0.0819323086219881  1.0000
  C   C5        1.0  0.9462004014612813  0.8075742917223302  0.699308639493038  1.0000
  C   C6        1.0  0.26460837053928  0.7551883334473317  0.4204920924214906  1.0000
  N   N1        1.0  0.7194015259833619  0.0893681769209764  0.4094851856644663  1.0000
  N   N2        1.0  0.002972028395335613  0.17027263205120846  0.9561253895930727  1.0000
  N   N3        1.0  0.7355825815288016  0.9623702530069654  0.31314988999983717  1.0000
  N   N4        1.0  0.024711872131036206  0.17649997944386375  0.08181575760540623  1.0000
  O   O1        1.0  0.38370062463220833  0.6296266888237125  0.9803725007342879  1.0000
  O   O2        1.0  0.5599538001033957  0.14141529792470986  0.6844231652657078  1.0000
  O   O3        1.0  0.5544284721230864  0.4973941262120565  0.48909782691243814  1.0000
  O   O4        1.0  0.5969584791415966  0.3393039263824389  0.004552356141934204  1.0000
  O   O5        1.0  0.43090730333884475  0.9188893366329576  0.846845864266357  1.0000
  O   O6        1.0  0.1134389617357091  0.38635761383111183  0.7861083850923176  1.0000
  O   O7        1.0  0.907369161553721  0.6207283137213908  0.1186431497540319  1.0000
  O   O8        1.0  0.27596787600290257  0.25642799488642964  0.5658571055023343  1.0000
  O   O9        1.0  0.9459370858363634  0.7169600641449143  0.7897419101134603  1.0000
  O   O10       1.0  0.2248583645601089  0.6105164703423929  0.45710657278646455  1.0000
data_image42
_chemical_formula_structural       Cu2C6N4O10
_chemical_formula_sum              "Cu2 C6 N4 O10"
_cell_length_a       6.950721000000001
_cell_length_b       7.113486077992492
_cell_length_c       8.6539786637408
_cell_angle_alpha    105.43300670560022
_cell_angle_beta     90.64948243757532
_cell_angle_gamma    112.19062950933201

_space_group_name_H-M_alt    "P 1"
_space_group_IT_number       1

loop_
  _space_group_symop_operation_xyz
  'x, y, z'

loop_
  _atom_site_type_symbol
  _atom_site_label
  _atom_site_symmetry_multiplicity
  _atom_site_fract_x
  _atom_site_fract_y
  _atom_site_fract_z
  _atom_site_occupancy
  Cu  Cu1       1.0  0.7121652957914646  0.9149873100686952  0.7586768249585519  1.0000
  Cu  Cu2       1.0  0.052024191052463566  0.8399715930728795  0.3938146930725232  1.0000
  C   C1        1.0  0.46060046057655296  0.6537485931666749  0.8629413991658627  1.0000
  C   C2        1.0  0.40879659812025987  0.09664417954292714  0.6833183630880673  1.0000
  C   C3        1.0  0.46063958431727825  0.3726639878101332  0.4735460867185782  1.0000
  C   C4        1.0  0.8101012340364425  0.5291252260524426  0.06569440547257628  1.0000
  C   C5        1.0  0.9017562011966673  0.7707823002899724  0.7141918443680878  1.0000
  C   C6        1.0  0.15267462201371215  0.631527842441778  0.4036724590553922  1.0000
  N   N1        1.0  0.8721829159505663  0.12835266921722036  0.3082599949209494  1.0000
  N   N2        1.0  0.9392910402358772  0.1175384461870197  0.9686140205062234  1.0000
  N   N3        1.0  0.8498855702762624  0.06761617809533528  0.41335227820216086  1.0000
  N   N4        1.0  0.028678080172110154  0.11680484068784236  0.08411108552555871  1.0000
  O   O1        1.0  0.6441945755659226  0.6963656152385909  0.87313002809719  1.0000
  O   O2        1.0  0.5673635234367644  0.17760535926316368  0.6351928537599187  1.0000
  O   O3        1.0  0.6356065467805109  0.47680319385358827  0.4889957562936105  1.0000
  O   O4        1.0  0.7685793729095293  0.3515672792092901  0.9963726561751961  1.0000
  O   O5        1.0  0.2530964293546573  0.991316202657991  0.7632006695763056  1.0000
  O   O6        1.0  0.271042515749683  0.5956841455100446  0.8546577472875703  1.0000
  O   O7        1.0  0.8755902291192031  0.6980591509050897  0.14771794978288688  1.0000
  O   O8        1.0  0.28374316513745823  0.24803859099770909  0.4439737037396374  1.0000
  O   O9        1.0  0.9460180968733859  0.6346560822241367  0.7162052271192803  1.0000
  O   O10       1.0  0.3559791350841786  0.7034707125481198  0.40902769670592287  1.0000
data_image43
_chemical_formula_structural       Cu2C6N4O10
_chemical_formula_sum              "Cu2 C6 N4 O10"
_cell_length_a       6.950721000000001
_cell_length_b       7.113486077992492
_cell_length_c       8.6539786637408
_cell_angle_alpha    105.43300670560022
_cell_angle_beta     90.64948243757532
_cell_angle_gamma    112.19062950933201

_space_group_name_H-M_alt    "P 1"
_space_group_IT_number       1

loop_
  _space_group_symop_operation_xyz
  'x, y, z'

loop_
  _atom_site_type_symbol
  _atom_site_label
  _atom_site_symmetry_multiplicity
  _atom_site_fract_x
  _atom_site_fract_y
  _atom_site_fract_z
  _atom_site_occupancy
  Cu  Cu1       1.0  0.696669097409506  0.8612456647823832  0.6916049802274463  1.0000
  Cu  Cu2       1.0  0.05249899877434904  0.8205122023850642  0.41836444631807973  1.0000
  C   C1        1.0  0.3637174424287468  0.666283987324154  0.985403456055299  1.0000
  C   C2        1.0  0.47619405119593716  0.14454166043044814  0.7235114329621822  1.0000
  C   C3        1.0  0.47577162742589574  0.3471913338694119  0.3695022936877802  1.0000
  C   C4        1.0  0.8410751527583584  0.5699229334843856  0.087326261590164  1.0000
  C   C5        1.0  0.9077688362426416  0.7402007011486933  0.6345391779959076  1.0000
  C   C6        1.0  0.21453509326521966  0.6854604976924079  0.3209083746486745  1.0000
  N   N1        1.0  0.7806237852503259  0.12781376996450705  0.4394152449140798  1.0000
  N   N2        1.0  0.09860305944311809  0.13461373853628888  0.117016350141034  1.0000
  N   N3        1.0  0.9057888363664413  0.07744197427956671  0.4453483437905333  1.0000
  N   N4        1.0  0.05247214749080209  0.15957826727264268  0.9963952822630897  1.0000
  O   O1        1.0  0.5565683466576662  0.7330994076012108  0.9959300848010186  1.0000
  O   O2        1.0  0.5087317101298722  0.9825860510924285  0.7080144271198502  1.0000
  O   O3        1.0  0.5662370562437502  0.47046919511628105  0.2969769973501319  1.0000
  O   O4        1.0  0.7639199344745033  0.40671787385408664  0.9942646698737616  1.0000
  O   O5        1.0  0.40040352412322744  0.25283969112805615  0.7463778409675328  1.0000
  O   O6        1.0  0.2061640995278706  0.6681772007985703  0.042130976045270385  1.0000
  O   O7        1.0  0.8917473104467797  0.7417079300593585  0.16815011887441522  1.0000
  O   O8        1.0  0.366626066657288  0.2630903228099515  0.4501369818251637  1.0000
  O   O9        1.0  0.9023940692919126  0.618117199330004  0.7010183041426571  1.0000
  O   O10       1.0  0.31054634384556534  0.5991396263974214  0.26306973022042934  1.0000
data_image44
_chemical_formula_structural       Cu2C6N4O10
_chemical_formula_sum              "Cu2 C6 N4 O10"
_cell_length_a       6.950721000000001
_cell_length_b       7.113486077992492
_cell_length_c       8.6539786637408
_cell_angle_alpha    105.43300670560022
_cell_angle_beta     90.64948243757532
_cell_angle_gamma    112.19062950933201

_space_group_name_H-M_alt    "P 1"
_space_group_IT_number       1

loop_
  _space_group_symop_operation_xyz
  'x, y, z'

loop_
  _atom_site_type_symbol
  _atom_site_label
  _atom_site_symmetry_multiplicity
  _atom_site_fract_x
  _atom_site_fract_y
  _atom_site_fract_z
  _atom_site_occupancy
  Cu  Cu1       1.0  0.8329543834242239  0.9257108547870331  0.593436572919389  1.0000
  Cu  Cu2       1.0  0.9368844805020733  0.7408399720459026  0.41351075593969344  1.0000
  C   C1        1.0  0.32210648359405414  0.6902515791175695  0.048447403521397536  1.0000
  C   C2        1.0  0.42988364452064465  0.10380902243348133  0.7806287581576578  1.0000
  C   C3        1.0  0.45757183483828257  0.3275138580521555  0.35565886391381135  1.0000
  C   C4        1.0  0.7830148614153221  0.5302229220686145  0.04989289528330381  1.0000
  C   C5        1.0  0.907697418032329  0.7307718012411154  0.6343306398416276  1.0000
  C   C6        1.0  0.17702629051998087  0.7242090164107212  0.4470337850883691  1.0000
  N   N1        1.0  0.7994401941507416  0.10164433658114082  0.4760142203466478  1.0000
  N   N2        1.0  0.14689886977173372  0.1277247585540986  0.9840022256378472  1.0000
  N   N3        1.0  0.9561640595008656  0.23552697676781434  0.4801359458115958  1.0000
  N   N4        1.0  0.10900889509319966  0.2192744172431229  0.10143809968688072  1.0000
  O   O1        1.0  0.4491920063657696  0.8293754672999195  0.15911639478848838  1.0000
  O   O2        1.0  0.4905483315019482  0.9507905933490435  0.7727048122198165  1.0000
  O   O3        1.0  0.5671143116839122  0.38117521649276664  0.2616429507432294  1.0000
  O   O4        1.0  0.7990455909256104  0.36358405857757337  0.9989911212718401  1.0000
  O   O5        1.0  0.4297225606825366  0.2749592296450514  0.7999069464187857  1.0000
  O   O6        1.0  0.19771828740226297  0.6197076130308509  0.9391791424596768  1.0000
  O   O7        1.0  0.7987077653431891  0.7028518096004379  0.10435332148078946  1.0000
  O   O8        1.0  0.35360334698350626  0.2199671907563182  0.43147846299035264  1.0000
  O   O9        1.0  0.9804146858807852  0.6220391147327968  0.6811406336232708  1.0000
  O   O10       1.0  0.3221640857811374  0.7026522747306663  0.44073558344520086  1.0000
data_image45
_chemical_formula_structural       Cu2C6N4O10
_chemical_formula_sum              "Cu2 C6 N4 O10"
_cell_length_a       6.950721000000001
_cell_length_b       7.113486077992492
_cell_length_c       8.6539786637408
_cell_angle_alpha    105.43300670560022
_cell_angle_beta     90.64948243757532
_cell_angle_gamma    112.19062950933201

_space_group_name_H-M_alt    "P 1"
_space_group_IT_number       1

loop_
  _space_group_symop_operation_xyz
  'x, y, z'

loop_
  _atom_site_type_symbol
  _atom_site_label
  _atom_site_symmetry_multiplicity
  _atom_site_fract_x
  _atom_site_fract_y
  _atom_site_fract_z
  _atom_site_occupancy
  Cu  Cu1       1.0  0.9503517015555871  0.9883289732321766  0.6193396935980736  1.0000
  Cu  Cu2       1.0  0.8190467811741504  0.5332672791027897  0.32036386158420915  1.0000
  C   C1        1.0  0.29554067650928695  0.7224764530748046  0.07467345117688384  1.0000
  C   C2        1.0  0.4601641297716181  0.18849773338151277  0.8238736881201227  1.0000
  C   C3        1.0  0.5543505311964234  0.3183317568156193  0.3521711627727947  1.0000
  C   C4        1.0  0.8392428646902717  0.65924122888281  0.9662984993959409  1.0000
  C   C5        1.0  0.8067459883345908  0.649486170992051  0.5586387213958139  1.0000
  C   C6        1.0  0.17203289513446737  0.671914771504963  0.4801667535260311  1.0000
  N   N1        1.0  0.8358495281956758  0.15826425464023786  0.44346233833196047  1.0000
  N   N2        1.0  0.14214828491334552  0.1946340112341145  0.07905483626365109  1.0000
  N   N3        1.0  0.9033147387132144  0.1978911076123946  0.5745217330071022  1.0000
  N   N4        1.0  0.18618950572522397  0.2713159347811607  0.20943621503625137  1.0000
  O   O1        1.0  0.32008622368272216  0.813736775292265  0.21895898331878172  1.0000
  O   O2        1.0  0.5137300776937894  0.06601626018232576  0.8622890581938653  1.0000
  O   O3        1.0  0.48245900664664815  0.13439294186709771  0.25700091564416977  1.0000
  O   O4        1.0  0.8483515836642289  0.5141461722137863  0.8815292871562341  1.0000
  O   O5        1.0  0.4113359080215052  0.33072847387796656  0.8023646128117664  1.0000
  O   O6        1.0  0.26049985002709186  0.6005418837197757  0.9435064716249898  1.0000
  O   O7        1.0  0.7922025203981045  0.7918158810251217  0.05019709325826005  1.0000
  O   O8        1.0  0.5333786160890157  0.4402764703058133  0.4713399098205533  1.0000
  O   O9        1.0  0.8169888162160613  0.6896740490541473  0.691838076801976  1.0000
  O   O10       1.0  0.32548831649430016  0.6587060510013094  0.4904088793762317  1.0000
data_image46
_chemical_formula_structural       Cu2C6N4O10
_chemical_formula_sum              "Cu2 C6 N4 O10"
_cell_length_a       6.950721000000001
_cell_length_b       7.113486077992492
_cell_length_c       8.6539786637408
_cell_angle_alpha    105.43300670560022
_cell_angle_beta     90.64948243757532
_cell_angle_gamma    112.19062950933201

_space_group_name_H-M_alt    "P 1"
_space_group_IT_number       1

loop_
  _space_group_symop_operation_xyz
  'x, y, z'

loop_
  _atom_site_type_symbol
  _atom_site_label
  _atom_site_symmetry_multiplicity
  _atom_site_fract_x
  _atom_site_fract_y
  _atom_site_fract_z
  _atom_site_occupancy
  Cu  Cu1       1.0  0.04775990253906004  0.00802790262108144  0.5866767619920639  1.0000
  Cu  Cu2       1.0  0.7992990251135499  0.41006826938101126  0.23768773793708867  1.0000
  C   C1        1.0  0.23570611462184138  0.696839593764147  0.03612501456552586  1.0000
  C   C2        1.0  0.4736380493915854  0.2158476462166763  0.8294982558279653  1.0000
  C   C3        1.0  0.4673883252462321  0.22740067909024575  0.419517310599868  1.0000
  C   C4        1.0  0.8329247730956832  0.7972363294027083  0.03413285640592795  1.0000
  C   C5        1.0  0.7988932325174326  0.7135494132590825  0.46145251102419743  1.0000
  C   C6        1.0  0.20345010494817392  0.6506521664063257  0.4730787675316195  1.0000
  N   N1        1.0  0.9083265766324147  0.18352280395751422  0.6406925480188851  1.0000
  N   N2        1.0  0.2745807046134886  0.3695432774550109  0.16885726542963647  1.0000
  N   N3        1.0  0.7711956823608618  0.23192301993129338  0.6320922962013082  1.0000
  N   N4        1.0  0.11977881381073308  0.25044492514252537  0.18732524220572963  1.0000
  O   O1        1.0  0.25651100997445136  0.747550854115162  0.1835310765474758  1.0000
  O   O2        1.0  0.5859665429475375  0.18353710188373173  0.924394174205387  1.0000
  O   O3        1.0  0.5606088545629365  0.18681436586466071  0.31235336870859226  1.0000
  O   O4        1.0  0.8218031649256918  0.6278069338794778  0.9903492559943516  1.0000
  O   O5        1.0  0.3138884543978189  0.23863062135920932  0.803349804381345  1.0000
  O   O6        1.0  0.24148467728564177  0.6133357070739005  0.9001298357828446  1.0000
  O   O7        1.0  0.8216964927216378  0.9609447296534548  0.07715773994525543  1.0000
  O   O8        1.0  0.34611804031427634  0.23198341663350153  0.516152526115851  1.0000
  O   O9        1.0  0.7625600791836313  0.6735920296163767  0.5843521069686824  1.0000
  O   O10       1.0  0.36454657697111  0.7311083556645903  0.5552951283186789  1.0000
data_image47
_chemical_formula_structural       Cu2C6N4O10
_chemical_formula_sum              "Cu2 C6 N4 O10"
_cell_length_a       6.950721000000001
_cell_length_b       7.113486077992492
_cell_length_c       8.6539786637408
_cell_angle_alpha    105.43300670560022
_cell_angle_beta     90.64948243757532
_cell_angle_gamma    112.19062950933201

_space_group_name_H-M_alt    "P 1"
_space_group_IT_number       1

loop_
  _space_group_symop_operation_xyz
  'x, y, z'

loop_
  _atom_site_type_symbol
  _atom_site_label
  _atom_site_symmetry_multiplicity
  _atom_site_fract_x
  _atom_site_fract_y
  _atom_site_fract_z
  _atom_site_occupancy
  Cu  Cu1       1.0  0.998373520121423  0.9509741692183218  0.5544800774870225  1.0000
  Cu  Cu2       1.0  0.8010089181940292  0.40768068360995624  0.2488220072604126  1.0000
  C   C1        1.0  0.32317664581563615  0.7209372205272035  0.9746917899046157  1.0000
  C   C2        1.0  0.4383216746290067  0.060623359815476174  0.8260558456152856  1.0000
  C   C3        1.0  0.39317555553100897  0.1875953833322601  0.42789560115488146  1.0000
  C   C4        1.0  0.7181209529493454  0.8451275426616127  0.0541826977187009  1.0000
  C   C5        1.0  0.8654542630338172  0.6385533517531609  0.47239660256150984  1.0000
  C   C6        1.0  0.3416009423546458  0.849413667659036  0.5537410903993399  1.0000
  N   N1        1.0  0.026452908391774832  0.2314623584532746  0.6728602882338628  1.0000
  N   N2        1.0  0.37879996123922377  0.5090962200576112  0.26738646927480525  1.0000
  N   N3        1.0  0.9272639313074456  0.30737455350963916  0.746359727927234  1.0000
  N   N4        1.0  0.21155417103353824  0.4544513324825856  0.22913305419260654  1.0000
  O   O1        1.0  0.3241559148121123  0.7960786268375535  0.10841510951867206  1.0000
  O   O2        1.0  0.5954944782205475  0.05041835176569931  0.8065339964389799  1.0000
  O   O3        1.0  0.505557608068113  0.13328538365225195  0.3302436708637156  1.0000
  O   O4        1.0  0.6608570405767562  0.6623684926887459  0.9737785875981548  1.0000
  O   O5        1.0  0.2810150497482416  0.07285002118756845  0.8444658854642598  1.0000
  O   O6        1.0  0.26479964134691947  0.6591721469187667  0.8399531403704541  1.0000
  O   O7        1.0  0.7658566081385272  0.0247444736128295  0.11040576499095689  1.0000
  O   O8        1.0  0.21448647961898146  0.15571460693795713  0.47119869807820214  1.0000
  O   O9        1.0  0.8006130647285333  0.7455147517529164  0.5828055320818362  1.0000
  O   O10       1.0  0.3870160069914704  0.717854720617534  0.5660399513803386  1.0000
data_image48
_chemical_formula_structural       Cu2C6N4O10
_chemical_formula_sum              "Cu2 C6 N4 O10"
_cell_length_a       6.950721000000001
_cell_length_b       7.113486077992492
_cell_length_c       8.6539786637408
_cell_angle_alpha    105.43300670560022
_cell_angle_beta     90.64948243757532
_cell_angle_gamma    112.19062950933201

_space_group_name_H-M_alt    "P 1"
_space_group_IT_number       1

loop_
  _space_group_symop_operation_xyz
  'x, y, z'

loop_
  _atom_site_type_symbol
  _atom_site_label
  _atom_site_symmetry_multiplicity
  _atom_site_fract_x
  _atom_site_fract_y
  _atom_site_fract_z
  _atom_site_occupancy
  Cu  Cu1       1.0  0.9942857647913301  0.884433592909505  0.4502082597255893  1.0000
  Cu  Cu2       1.0  0.8250688822687496  0.4244670813064456  0.3136880065908714  1.0000
  C   C1        1.0  0.29936256901084707  0.7586901093295507  0.9825307086910028  1.0000
  C   C2        1.0  0.43088048147395797  0.1103586127359435  0.9227915162564105  1.0000
  C   C3        1.0  0.37613152656117993  0.17478610542246298  0.38699324273062846  1.0000
  C   C4        1.0  0.7642960388429167  0.9144884941945537  0.07092073527590752  1.0000
  C   C5        1.0  0.8645086456338775  0.62950662123063  0.49522399577139753  1.0000
  C   C6        1.0  0.49591188229126315  0.92897343857815  0.49543370781324286  1.0000
  N   N1        1.0  0.8806607076551151  0.20046303585312583  0.7208460453295625  1.0000
  N   N2        1.0  0.12156786014125853  0.3246054190197263  0.14925919492818251  1.0000
  N   N3        1.0  0.050622152841711454  0.2667772172209649  0.805736445047419  1.0000
  N   N4        1.0  0.07270978961478924  0.45906076348688085  0.20310298254233142  1.0000
  O   O1        1.0  0.26908236239509226  0.802486808225803  0.11684364404373904  1.0000
  O   O2        1.0  0.5998023797978186  0.13863519495103716  0.8849339254952443  1.0000
  O   O3        1.0  0.5005890819507525  0.2360075034937218  0.2902420670516438  1.0000
  O   O4        1.0  0.7790785854751184  0.7604179524484616  0.07144398632089057  1.0000
  O   O5        1.0  0.2757541310883083  0.1146365344545579  0.9702610460474864  1.0000
  O   O6        1.0  0.2926816638235143  0.7144744625963149  0.8378779425699973  1.0000
  O   O7        1.0  0.7606414088628852  0.08126739055813204  0.1103320624097488  1.0000
  O   O8        1.0  0.18247177405497728  0.11521342739241658  0.3944261287394307  1.0000
  O   O9        1.0  0.7817718933179577  0.501120886833614  0.5787792569044541  1.0000
  O   O10       1.0  0.5316469043286806  0.8064556171674397  0.5381143720901151  1.0000
data_image49
_chemical_formula_structural       Cu2C6N4O10
_chemical_formula_sum              "Cu2 C6 N4 O10"
_cell_length_a       6.950721000000001
_cell_length_b       7.113486077992492
_cell_length_c       8.6539786637408
_cell_angle_alpha    105.43300670560022
_cell_angle_beta     90.64948243757532
_cell_angle_gamma    112.19062950933201

_space_group_name_H-M_alt    "P 1"
_space_group_IT_number       1

loop_
  _space_group_symop_operation_xyz
  'x, y, z'

loop_
  _atom_site_type_symbol
  _atom_site_label
  _atom_site_symmetry_multiplicity
  _atom_site_fract_x
  _atom_site_fract_y
  _atom_site_fract_z
  _atom_site_occupancy
  Cu  Cu1       1.0  0.9328819192548319  0.7349294867807064  0.31930100760652147  1.0000
  Cu  Cu2       1.0  0.8061835340473871  0.4177392425059656  0.3156776462488709  1.0000
  C   C1        1.0  0.25976729584671826  0.7247472853315435  0.9200084940890129  1.0000
  C   C2        1.0  0.5002210287887036  0.21198579309890264  0.9442092823144688  1.0000
  C   C3        1.0  0.3776859518374659  0.22288728321335016  0.4164842044903409  1.0000
  C   C4        1.0  0.7853310368709435  0.7796160152741105  0.0485261932083041  1.0000
  C   C5        1.0  0.8457803590579794  0.7396149194762351  0.6026971960527745  1.0000
  C   C6        1.0  0.5094186653292216  0.015921549664269286  0.48890371352806483  1.0000
  N   N1        1.0  0.04869126542118085  0.3395224462772009  0.930670706637755  1.0000
  N   N2        1.0  0.21921681216936173  0.5480551061768391  0.266847961648521  1.0000
  N   N3        1.0  0.06152717984881351  0.21341326412754588  0.840020974880236  1.0000
  N   N4        1.0  0.05112578644153387  0.4198555208653054  0.26413360451309836  1.0000
  O   O1        1.0  0.2809136839737037  0.8436772089797014  0.05265068708625753  1.0000
  O   O2        1.0  0.5404343561482108  0.12307088351927797  0.8109318867846291  1.0000
  O   O3        1.0  0.5343559451837575  0.3688776191272193  0.45585587033313796  1.0000
  O   O4        1.0  0.8597609001911299  0.6592589721322186  0.009686722174295496  1.0000
  O   O5        1.0  0.4349640712494168  0.2746579786940959  0.0758210144535496  1.0000
  O   O6        1.0  0.27757634588653113  0.6169164100970803  0.7956913757132863  1.0000
  O   O7        1.0  0.6525294795718177  0.855898172121073  0.06816104136451817  1.0000
  O   O8        1.0  0.19333395535451653  0.07343564281577508  0.36793866238195994  1.0000
  O   O9        1.0  0.8529291902539746  0.8527661015029121  0.7357981121702404  1.0000
  O   O10       1.0  0.40387419940539543  0.8564173452101927  0.5161451756351  1.0000
data_image50
_chemical_formula_structural       Cu2C6N4O10
_chemical_formula_sum              "Cu2 C6 N4 O10"
_cell_length_a       6.950721000000001
_cell_length_b       7.113486077992492
_cell_length_c       8.6539786637408
_cell_angle_alpha    105.43300670560022
_cell_angle_beta     90.64948243757532
_cell_angle_gamma    112.19062950933201

_space_group_name_H-M_alt    "P 1"
_space_group_IT_number       1

loop_
  _space_group_symop_operation_xyz
  'x, y, z'

loop_
  _atom_site_type_symbol
  _atom_site_label
  _atom_site_symmetry_multiplicity
  _atom_site_fract_x
  _atom_site_fract_y
  _atom_site_fract_z
  _atom_site_occupancy
  Cu  Cu1       1.0  0.8629710838590012  0.806608768642956  0.325928044066814  1.0000
  Cu  Cu2       1.0  0.8379078512783251  0.4221225874815847  0.2682709219996909  1.0000
  C   C1        1.0  0.23078263471474283  0.677801294346718  0.8251979719438992  1.0000
  C   C2        1.0  0.5875467792382558  0.1836238466869129  0.9844291810052935  1.0000
  C   C3        1.0  0.3383747335764679  0.18141828336728671  0.4662947974839199  1.0000
  C   C4        1.0  0.7769191255974613  0.7913501618138972  0.02013283256815875  1.0000
  C   C5        1.0  0.922116293562182  0.7785540377549035  0.5267303832901747  1.0000
  C   C6        1.0  0.4863672105662641  0.945377743186055  0.555446791418867  1.0000
  N   N1        1.0  0.19392498836307226  0.3039811824803005  0.0012927141005139031  1.0000
  N   N2        1.0  0.21903886572178144  0.45232893085789194  0.37696209056423935  1.0000
  N   N3        1.0  0.061122041313822484  0.3340862931388408  0.9563386292107637  1.0000
  N   N4        1.0  0.06741370634994215  0.46432494953732806  0.3574979684904897  1.0000
  O   O1        1.0  0.25004420355440243  0.8275409275864397  0.949630989409163  1.0000
  O   O2        1.0  0.5982399242012328  0.07447432948026411  0.8548449909297082  1.0000
  O   O3        1.0  0.4443761590826739  0.3507816979148358  0.5671901826884138  1.0000
  O   O4        1.0  0.7293768424123867  0.6351416603338649  0.8913221138065899  1.0000
  O   O5        1.0  0.5829748452861819  0.3018066243304578  0.11066725162571145  1.0000
  O   O6        1.0  0.20539930528793657  0.5585867266597201  0.6969134547433787  1.0000
  O   O7        1.0  0.8673234681138797  0.9095561726861487  0.1482829213500343  1.0000
  O   O8        1.0  0.22811832485407027  0.06369675307020417  0.3566771068683374  1.0000
  O   O9        1.0  0.7708648461842103  0.7220939054078399  0.585314645457332  1.0000
  O   O10       1.0  0.3210375700669863  0.8541238492951752  0.5863603624304032  1.0000
data_image51
_chemical_formula_structural       Cu2C6N4O10
_chemical_formula_sum              "Cu2 C6 N4 O10"
_cell_length_a       6.950721000000001
_cell_length_b       7.113486077992492
_cell_length_c       8.6539786637408
_cell_angle_alpha    105.43300670560022
_cell_angle_beta     90.64948243757532
_cell_angle_gamma    112.19062950933201

_space_group_name_H-M_alt    "P 1"
_space_group_IT_number       1

loop_
  _space_group_symop_operation_xyz
  'x, y, z'

loop_
  _atom_site_type_symbol
  _atom_site_label
  _atom_site_symmetry_multiplicity
  _atom_site_fract_x
  _atom_site_fract_y
  _atom_site_fract_z
  _atom_site_occupancy
  Cu  Cu1       1.0  0.7752727193191287  0.8290181919732699  0.28755405322399735  1.0000
  Cu  Cu2       1.0  0.8684912684603455  0.4373210910862739  0.2520756984784124  1.0000
  C   C1        1.0  0.10060027262984049  0.5875972158753018  0.8367680777473203  1.0000
  C   C2        1.0  0.6410329303894946  0.24857414684707835  0.08876037633596479  1.0000
  C   C3        1.0  0.4764236327891206  0.17410977870725175  0.41290630012955715  1.0000
  C   C4        1.0  0.7646189556243042  0.7851858206138831  0.9926567579702734  1.0000
  C   C5        1.0  0.7565460343896894  0.612982873580147  0.4051442671362238  1.0000
  C   C6        1.0  0.41056237108119426  0.8904050672137933  0.5746138435275613  1.0000
  N   N1        1.0  0.20572091276199034  0.31258670964147656  0.0001073909070874457  1.0000
  N   N2        1.0  0.1731496478162372  0.4074710524878413  0.4013341327736411  1.0000
  N   N3        1.0  0.24906207197625996  0.46515319243114256  0.10180014762406664  1.0000
  N   N4        1.0  0.10237431288312826  0.5206657471693279  0.3970503000332332  1.0000
  O   O1        1.0  0.18415127992930663  0.7697543548247439  0.9185235048533504  1.0000
  O   O2        1.0  0.6778417378055753  0.11710344347684853  0.9869308883223091  1.0000
  O   O3        1.0  0.41220547173711286  0.23270635997375522  0.5172073980539463  1.0000
  O   O4        1.0  0.6963885205468494  0.668224557371643  0.8611828610949057  1.0000
  O   O5        1.0  0.5399678788540964  0.3479848457084882  0.1466481049717967  1.0000
  O   O6        1.0  0.03585443832737993  0.40597914698013016  0.768282567870891  1.0000
  O   O7        1.0  0.8953402555588622  0.9538567393725541  0.09885682548083241  1.0000
  O   O8        1.0  0.5329227999707314  0.06271264426547085  0.30708660588617953  1.0000
  O   O9        1.0  0.8741669797565796  0.7110182429507448  0.5331150642856848  1.0000
  O   O10       1.0  0.355659509526879  0.9445470224279936  0.6923996326288676  1.0000
data_image52
_chemical_formula_structural       Cu2C6N4O10
_chemical_formula_sum              "Cu2 C6 N4 O10"
_cell_length_a       6.950721000000001
_cell_length_b       7.113486077992492
_cell_length_c       8.6539786637408
_cell_angle_alpha    105.43300670560022
_cell_angle_beta     90.64948243757532
_cell_angle_gamma    112.19062950933201

_space_group_name_H-M_alt    "P 1"
_space_group_IT_number       1

loop_
  _space_group_symop_operation_xyz
  'x, y, z'

loop_
  _atom_site_type_symbol
  _atom_site_label
  _atom_site_symmetry_multiplicity
  _atom_site_fract_x
  _atom_site_fract_y
  _atom_site_fract_z
  _atom_site_occupancy
  Cu  Cu1       1.0  0.7356463099951656  0.8073976828044753  0.24138392273064518  1.0000
  Cu  Cu2       1.0  0.9279397032856843  0.5416289038086681  0.31450640832504145  1.0000
  C   C1        1.0  0.008160657471714461  0.5855740486294646  0.8361436111979869  1.0000
  C   C2        1.0  0.6275829431373315  0.22004541917143983  0.03542616803945675  1.0000
  C   C3        1.0  0.52583143281361  0.07746081077747757  0.41343128533355683  1.0000
  C   C4        1.0  0.7807058853484936  0.8277638179210633  0.012897785393869888  1.0000
  C   C5        1.0  0.9144533200952312  0.7807244653517127  0.44909155883836643  1.0000
  C   C6        1.0  0.46459961617883117  0.8453176081776427  0.6307641199878156  1.0000
  N   N1        1.0  0.119352549550642  0.2988791496866719  0.011432923501486947  1.0000
  N   N2        1.0  0.09152076464321257  0.31600742745633004  0.46009923980255785  1.0000
  N   N3        1.0  0.18057551335489253  0.4628200355281351  0.092195051111569  1.0000
  N   N4        1.0  0.21944691550193307  0.39330418776370357  0.37267873334695806  1.0000
  O   O1        1.0  0.1779637063399192  0.7103180647363395  0.9233958328721188  1.0000
  O   O2        1.0  0.6891213961823404  0.13171311608535796  0.9194892966585629  1.0000
  O   O3        1.0  0.34209523589241014  0.002326034297870039  0.41122516106873447  1.0000
  O   O4        1.0  0.6883405362824311  0.6859414633170693  0.8935276313991948  1.0000
  O   O5        1.0  0.5308213993726884  0.30431189267914727  0.11814446300076353  1.0000
  O   O6        1.0  0.877053145387145  0.48357509894629785  0.7336528749022485  1.0000
  O   O7        1.0  0.895413652632003  0.004058615084364003  0.08472058142965433  1.0000
  O   O8        1.0  0.6940598463742175  0.09314269404166886  0.41315444047467254  1.0000
  O   O9        1.0  0.9204981982042842  0.8876662039326348  0.5764002609564386  1.0000
  O   O10       1.0  0.28105622317622664  0.7599612739666989  0.6044277417692838  1.0000
data_image53
_chemical_formula_structural       Cu2C6N4O10
_chemical_formula_sum              "Cu2 C6 N4 O10"
_cell_length_a       6.950721000000001
_cell_length_b       7.113486077992492
_cell_length_c       8.6539786637408
_cell_angle_alpha    105.43300670560022
_cell_angle_beta     90.64948243757532
_cell_angle_gamma    112.19062950933201

_space_group_name_H-M_alt    "P 1"
_space_group_IT_number       1

loop_
  _space_group_symop_operation_xyz
  'x, y, z'

loop_
  _atom_site_type_symbol
  _atom_site_label
  _atom_site_symmetry_multiplicity
  _atom_site_fract_x
  _atom_site_fract_y
  _atom_site_fract_z
  _atom_site_occupancy
  Cu  Cu1       1.0  0.7490655110133202  0.7520269835353238  0.26922014681203404  1.0000
  Cu  Cu2       1.0  0.9205549383945526  0.5628129636139796  0.32352311948125917  1.0000
  C   C1        1.0  0.9547259069988026  0.588944639253491  0.8553097274442178  1.0000
  C   C2        1.0  0.6765126650995824  0.26321253483090157  0.9873917458419362  1.0000
  C   C3        1.0  0.48578332213102776  0.007663915435130564  0.38169404464247936  1.0000
  C   C4        1.0  0.748649164604824  0.8507350793009267  0.9707677155503991  1.0000
  C   C5        1.0  0.9377125853933658  0.8220771762551462  0.4818744759089352  1.0000
  C   C6        1.0  0.37244495642451525  0.7753349992889382  0.7314163033699514  1.0000
  N   N1        1.0  0.176181799240138  0.3100357521821113  0.915915129176461  1.0000
  N   N2        1.0  0.1642470227748284  0.3848034557090134  0.3735203063145706  1.0000
  N   N3        1.0  0.1832610544878961  0.3531437466074151  0.05327117559484096  1.0000
  N   N4        1.0  0.34901747299735764  0.4291842334080411  0.38352306050358237  1.0000
  O   O1        1.0  0.1190102612521382  0.6890912188302629  0.9513829806523829  1.0000
  O   O2        1.0  0.7229698142025904  0.1542307410275794  0.8782213277300432  1.0000
  O   O3        1.0  0.3239126744478506  0.9470913461414392  0.3108019174204625  1.0000
  O   O4        1.0  0.5574441983307451  0.7370868078443793  0.9333281440266461  1.0000
  O   O5        1.0  0.5912645616851936  0.3179564158261645  0.09955842110727797  1.0000
  O   O6        1.0  0.8111658934892658  0.49335998932980685  0.7305657605220395  1.0000
  O   O7        1.0  0.9001428003346562  0.9521220140339539  0.08875946413717051  1.0000
  O   O8        1.0  0.6759054127047306  0.08517247344620082  0.3901624393508186  1.0000
  O   O9        1.0  0.9704101319092001  0.9676386145723869  0.6060527565669025  1.0000
  O   O10       1.0  0.2817044934479017  0.873467250780294  0.7032637684199476  1.0000
data_image54
_chemical_formula_structural       Cu2C6N4O10
_chemical_formula_sum              "Cu2 C6 N4 O10"
_cell_length_a       6.950721000000001
_cell_length_b       7.113486077992492
_cell_length_c       8.6539786637408
_cell_angle_alpha    105.43300670560022
_cell_angle_beta     90.64948243757532
_cell_angle_gamma    112.19062950933201

_space_group_name_H-M_alt    "P 1"
_space_group_IT_number       1

loop_
  _space_group_symop_operation_xyz
  'x, y, z'

loop_
  _atom_site_type_symbol
  _atom_site_label
  _atom_site_symmetry_multiplicity
  _atom_site_fract_x
  _atom_site_fract_y
  _atom_site_fract_z
  _atom_site_occupancy
  Cu  Cu1       1.0  0.6276063397581264  0.7045044084746692  0.3239783294418524  1.0000
  Cu  Cu2       1.0  0.8635543824042221  0.48885716440870375  0.2916994722548193  1.0000
  C   C1        1.0  0.027673149689098696  0.712192700686496  0.9253384187319049  1.0000
  C   C2        1.0  0.784353693208342  0.18824948266453823  0.8846162957656358  1.0000
  C   C3        1.0  0.5109696577803532  0.11455565138401436  0.32986834520235786  1.0000
  C   C4        1.0  0.7356604223721529  0.884398127196536  0.13590728863049314  1.0000
  C   C5        1.0  0.8508446451635988  0.7245548938116124  0.46647395000245045  1.0000
  C   C6        1.0  0.4687678836209396  0.9002954777444392  0.6589863227933639  1.0000
  N   N1        1.0  0.2943046066499835  0.3070266307735911  0.83958313716365  1.0000
  N   N2        1.0  0.1216709537406484  0.4673538657524323  0.35026525068481945  1.0000
  N   N3        1.0  0.3755271641557185  0.2993876911918773  0.9462405075056511  1.0000
  N   N4        1.0  0.30284497029387025  0.4815130333603159  0.35016713088542056  1.0000
  O   O1        1.0  0.21273030467320272  0.8134575518113054  0.992281165507136  1.0000
  O   O2        1.0  0.8495502684765998  0.20186308359253768  0.7601491870689865  1.0000
  O   O3        1.0  0.3814243673143242  0.18186316618180287  0.29042757824216636  1.0000
  O   O4        1.0  0.5463334208653974  0.752210751820829  0.11383993726272326  1.0000
  O   O5        1.0  0.715092643136352  0.16766734765031277  0.01439211323677636  1.0000
  O   O6        1.0  0.8674516008742142  0.5680540481791152  0.907178733712414  1.0000
  O   O7        1.0  0.9034611444848488  0.9793231938706786  0.09837439102043444  1.0000
  O   O8        1.0  0.570325441243215  0.019340485518596018  0.41119905563748305  1.0000
  O   O9        1.0  0.9583826298203456  0.8645631619379451  0.581898095876055  1.0000
  O   O10       1.0  0.3104207189855849  0.9212359068554828  0.6458945929612625  1.0000
data_image55
_chemical_formula_structural       Cu2C6N4O10
_chemical_formula_sum              "Cu2 C6 N4 O10"
_cell_length_a       6.950721000000001
_cell_length_b       7.113486077992492
_cell_length_c       8.6539786637408
_cell_angle_alpha    105.43300670560022
_cell_angle_beta     90.64948243757532
_cell_angle_gamma    112.19062950933201

_space_group_name_H-M_alt    "P 1"
_space_group_IT_number       1

loop_
  _space_group_symop_operation_xyz
  'x, y, z'

loop_
  _atom_site_type_symbol
  _atom_site_label
  _atom_site_symmetry_multiplicity
  _atom_site_fract_x
  _atom_site_fract_y
  _atom_site_fract_z
  _atom_site_occupancy
  Cu  Cu1       1.0  0.5088491695911135  0.6711473765771193  0.34462353341756485  1.0000
  Cu  Cu2       1.0  0.7799971280225507  0.42482812945588055  0.26501390246008116  1.0000
  C   C1        1.0  0.05847264135241359  0.718814294233941  0.026662190691892906  1.0000
  C   C2        1.0  0.9598548246077041  0.21467464745231246  0.8049123315607334  1.0000
  C   C3        1.0  0.48899311377061916  0.17083066993522122  0.31818146236075895  1.0000
  C   C4        1.0  0.7836733322842341  0.937619113921565  0.21180207647391308  1.0000
  C   C5        1.0  0.8104599661814949  0.7607102104845771  0.4965920569653957  1.0000
  C   C6        1.0  0.45972591215343067  0.7658160339590104  0.6110523008043767  1.0000
  N   N1        1.0  0.48877747962115636  0.39824826352356324  0.9266116533558141  1.0000
  N   N2        1.0  0.0733198140225938  0.5381115444057045  0.2958347191661991  1.0000
  N   N3        1.0  0.36376708323245044  0.23853057251839052  0.8671740621725986  1.0000
  N   N4        1.0  0.2450512425650868  0.6301479657435582  0.3007753162198674  1.0000
  O   O1        1.0  0.2391127728653233  0.8034223059029258  0.9961324511207025  1.0000
  O   O2        1.0  0.10424322619248017  0.30733039912563265  0.7413734358784569  1.0000
  O   O3        1.0  0.47140647205405584  0.154965055624117  0.1706889626565994  1.0000
  O   O4        1.0  0.6137050198002081  0.8160429648138681  0.13090076835950787  1.0000
  O   O5        1.0  0.8590865195459622  0.13199608602342283  0.9111106606955699  1.0000
  O   O6        1.0  0.8692617204709344  0.6485187582684143  0.04611530058801683  1.0000
  O   O7        1.0  0.9559579748041617  0.05382882698407254  0.2917547396863529  1.0000
  O   O8        1.0  0.49292469331803695  0.07958040455008397  0.41241492888448006  1.0000
  O   O9        1.0  0.9219988596274199  0.7302476187303426  0.5783452503067776  1.0000
  O   O10       1.0  0.3907984929866486  0.8835296479393809  0.5970294590787851  1.0000
data_image56
_chemical_formula_structural       Cu2C6N4O10
_chemical_formula_sum              "Cu2 C6 N4 O10"
_cell_length_a       6.950721000000001
_cell_length_b       7.113486077992492
_cell_length_c       8.6539786637408
_cell_angle_alpha    105.43300670560022
_cell_angle_beta     90.64948243757532
_cell_angle_gamma    112.19062950933201

_space_group_name_H-M_alt    "P 1"
_space_group_IT_number       1

loop_
  _space_group_symop_operation_xyz
  'x, y, z'

loop_
  _atom_site_type_symbol
  _atom_site_label
  _atom_site_symmetry_multiplicity
  _atom_site_fract_x
  _atom_site_fract_y
  _atom_site_fract_z
  _atom_site_occupancy
  Cu  Cu1       1.0  0.44689917835829696  0.5841290283046239  0.3637161816960794  1.0000
  Cu  Cu2       1.0  0.7204177785180992  0.40965764424107  0.2889541372016937  1.0000
  C   C1        1.0  0.2817760386844806  0.8242716141312744  0.9925115254775292  1.0000
  C   C2        1.0  0.8920769801609586  0.24136719205156898  0.6716923036880894  1.0000
  C   C3        1.0  0.46008142019602966  0.10874245208464428  0.2676462757502448  1.0000
  C   C4        1.0  0.9309421335561442  0.9937168709668416  0.30832075176121165  1.0000
  C   C5        1.0  0.7018673895335598  0.6104859886653624  0.5032667916925037  1.0000
  C   C6        1.0  0.3913336381863608  0.8749662274941138  0.6182712371815198  1.0000
  N   N1        1.0  0.40910526634527167  0.408746705295944  0.8926900696310763  1.0000
  N   N2        1.0  0.011902936224528426  0.46877186349438116  0.26562977464796667  1.0000
  N   N3        1.0  0.34897907469174694  0.30749369358214756  0.9694159607254296  1.0000
  N   N4        1.0  0.1833067098425727  0.5323328723964735  0.25159396121293026  1.0000
  O   O1        1.0  0.40610823375077354  0.7689633402795124  0.9143911110093158  1.0000
  O   O2        1.0  0.9561586674344027  0.43782951943244486  0.6807795113749059  1.0000
  O   O3        1.0  0.497039503115683  0.16791111756337618  0.13335511822696974  1.0000
  O   O4        1.0  0.7509488314215353  0.9125002704307039  0.2409930383107614  1.0000
  O   O5        1.0  0.8816998253113876  0.09429865006590155  0.7073422716065113  1.0000
  O   O6        1.0  0.15348009884595717  0.903749829521819  0.020672234122448563  1.0000
  O   O7        1.0  0.06244449289365295  0.09454690611173078  0.4208622673958724  1.0000
  O   O8        1.0  0.437820502100191  0.025677584704486778  0.38842775594966883  1.0000
  O   O9        1.0  0.8714530564733194  0.64914707794769  0.5530279469729309  1.0000
  O   O10       1.0  0.5023019321040552  0.9729442778937187  0.7388213563975049  1.0000
data_image57
_chemical_formula_structural       Cu2C6N4O10
_chemical_formula_sum              "Cu2 C6 N4 O10"
_cell_length_a       6.950721000000001
_cell_length_b       7.113486077992492
_cell_length_c       8.6539786637408
_cell_angle_alpha    105.43300670560022
_cell_angle_beta     90.64948243757532
_cell_angle_gamma    112.19062950933201

_space_group_name_H-M_alt    "P 1"
_space_group_IT_number       1

loop_
  _space_group_symop_operation_xyz
  'x, y, z'

loop_
  _atom_site_type_symbol
  _atom_site_label
  _atom_site_symmetry_multiplicity
  _atom_site_fract_x
  _atom_site_fract_y
  _atom_site_fract_z
  _atom_site_occupancy
  Cu  Cu1       1.0  0.45746100219830454  0.6291425394716466  0.41944542846322147  1.0000
  Cu  Cu2       1.0  0.6974970520896329  0.4413159047719619  0.26059195600180435  1.0000
  C   C1        1.0  0.30965457977260336  0.7332412251339785  0.8784471535577318  1.0000
  C   C2        1.0  0.8561039070258509  0.28376198066999625  0.8050920963167393  1.0000
  C   C3        1.0  0.5431635799075576  0.029713506923726873  0.21319744713787256  1.0000
  C   C4        1.0  0.0630717600457733  0.07807100796775535  0.3650577987695923  1.0000
  C   C5        1.0  0.7564299138555006  0.7425818595179647  0.4938968613934762  1.0000
  C   C6        1.0  0.31365932375768146  0.8158252639557655  0.559174003611201  1.0000
  N   N1        1.0  0.3727678120550826  0.2395311493324123  0.8927183890096455  1.0000
  N   N2        1.0  0.9582040021083134  0.4585481088471719  0.20374815148546682  1.0000
  N   N3        1.0  0.27247658415550435  0.28213453059750426  0.9880442668469356  1.0000
  N   N4        1.0  0.11079202190819715  0.4561634467180178  0.23991838840807045  1.0000
  O   O1        1.0  0.48392320098340447  0.7359522290653145  0.8479402927099089  1.0000
  O   O2        1.0  0.7525242101924391  0.39264004338758096  0.8205947717446822  1.0000
  O   O3        1.0  0.6195395085812618  0.13253565914972454  0.13247839021195365  1.0000
  O   O4        1.0  0.9570463523046914  0.9191277524449586  0.2713660576641921  1.0000
  O   O5        1.0  0.8977699383687097  0.14332654448732396  0.7800223362532167  1.0000
  O   O6        1.0  0.13372503412104955  0.7241516070993457  0.9066250787440336  1.0000
  O   O7        1.0  0.1695424759952504  0.20623513817819328  0.481326175324035  1.0000
  O   O8        1.0  0.455298145822634  0.9422264704561125  0.29872578154982043  1.0000
  O   O9        1.0  0.9006417916233789  0.8055029548503739  0.5847982249959092  1.0000
  O   O10       1.0  0.270804892507659  0.9463616296057554  0.6521645887291019  1.0000
data_image58
_chemical_formula_structural       Cu2C6N4O10
_chemical_formula_sum              "Cu2 C6 N4 O10"
_cell_length_a       6.950721000000001
_cell_length_b       7.113486077992492
_cell_length_c       8.6539786637408
_cell_angle_alpha    105.43300670560022
_cell_angle_beta     90.64948243757532
_cell_angle_gamma    112.19062950933201

_space_group_name_H-M_alt    "P 1"
_space_group_IT_number       1

loop_
  _space_group_symop_operation_xyz
  'x, y, z'

loop_
  _atom_site_type_symbol
  _atom_site_label
  _atom_site_symmetry_multiplicity
  _atom_site_fract_x
  _atom_site_fract_y
  _atom_site_fract_z
  _atom_site_occupancy
  Cu  Cu1       1.0  0.39818850639806525  0.6500459810891704  0.42771733312480664  1.0000
  Cu  Cu2       1.0  0.5669757821779416  0.3664526160458417  0.21858507355362097  1.0000
  C   C1        1.0  0.3776340467207133  0.686525509509988  0.8392712380741152  1.0000
  C   C2        1.0  0.8502562117133515  0.26230368778006397  0.8678006671700476  1.0000
  C   C3        1.0  0.5274861443423252  0.005094996249618844  0.18610485726735015  1.0000
  C   C4        1.0  0.23653155269849946  0.21334791177343915  0.4426831802453537  1.0000
  C   C5        1.0  0.6986212796382172  0.5970621781397305  0.40996871555982056  1.0000
  C   C6        1.0  0.3476275768521776  0.8339313416242992  0.6083573255794773  1.0000
  N   N1        1.0  0.31117438822083243  0.3132905886926015  0.90196916701301  1.0000
  N   N2        1.0  0.08894653178297263  0.49256963810726484  0.262394083817533  1.0000
  N   N3        1.0  0.4205798120438078  0.4373290935874606  0.01076757394761163  1.0000
  N   N4        1.0  0.04069429482516662  0.5809209529319455  0.18988358583126017  1.0000
  O   O1        1.0  0.5391197022851885  0.6734880863206245  0.8280460324111386  1.0000
  O   O2        1.0  0.8176683959709896  0.39876628753816057  0.9454117877523953  1.0000
  O   O3        1.0  0.4824721839014185  0.07376673303572723  0.07225353982247654  1.0000
  O   O4        1.0  0.23083804809570485  0.12474965766295476  0.2939607477543788  1.0000
  O   O5        1.0  0.8540831535378298  0.08867924328604593  0.8308183513992032  1.0000
  O   O6        1.0  0.18502819213510996  0.6069696369462659  0.8102504619423746  1.0000
  O   O7        1.0  0.2630110693162846  0.31744059378719447  0.5749806782292675  1.0000
  O   O8        1.0  0.5675618047205662  0.9381734877254782  0.2953852217828645  1.0000
  O   O9        1.0  0.8628857031183619  0.6799080721274426  0.4982936262127087  1.0000
  O   O10       1.0  0.312908513609398  0.9860562383621025  0.6937583965024429  1.0000
data_image59
_chemical_formula_structural       Cu2C6N4O10
_chemical_formula_sum              "Cu2 C6 N4 O10"
_cell_length_a       6.950721000000001
_cell_length_b       7.113486077992492
_cell_length_c       8.6539786637408
_cell_angle_alpha    105.43300670560022
_cell_angle_beta     90.64948243757532
_cell_angle_gamma    112.19062950933201

_space_group_name_H-M_alt    "P 1"
_space_group_IT_number       1

loop_
  _space_group_symop_operation_xyz
  'x, y, z'

loop_
  _atom_site_type_symbol
  _atom_site_label
  _atom_site_symmetry_multiplicity
  _atom_site_fract_x
  _atom_site_fract_y
  _atom_site_fract_z
  _atom_site_occupancy
  Cu  Cu1       1.0  0.3594630319356704  0.6719036548831766  0.4081262708241665  1.0000
  Cu  Cu2       1.0  0.5189553175909023  0.35682883082331385  0.19776843366982502  1.0000
  C   C1        1.0  0.3315980915781162  0.6827142720378504  0.866246379020425  1.0000
  C   C2        1.0  0.8042523552756631  0.20491665377002732  0.8120899772727733  1.0000
  C   C3        1.0  0.6931188189062347  0.9629297329054072  0.23752483227728655  1.0000
  C   C4        1.0  0.2826641612957821  0.29253843589717476  0.5166026615473639  1.0000
  C   C5        1.0  0.7252922889267426  0.5084376655108076  0.3684077657802652  1.0000
  C   C6        1.0  0.35439337684075284  0.9004125141476695  0.5822148814831039  1.0000
  N   N1        1.0  0.3368109236133259  0.3138128421663277  0.022939148957543676  1.0000
  N   N2        1.0  0.09640305267364302  0.6824989298413975  0.1842608811047177  1.0000
  N   N3        1.0  0.48646316304080583  0.3666693053424524  0.9590179183477843  1.0000
  N   N4        1.0  0.16653152232622248  0.5698768927158402  0.2018451658034653  1.0000
  O   O1        1.0  0.5183132018559303  0.7850153786104448  0.9014944503216108  1.0000
  O   O2        1.0  0.8145968012644298  0.37409118710023037  0.8201081564561725  1.0000
  O   O3        1.0  0.5722531166459135  0.03260441911194134  0.2556074395411156  1.0000
  O   O4        1.0  0.3311154004892667  0.26013311143398443  0.3860598519936904  1.0000
  O   O5        1.0  0.783252596281723  0.03119697078136796  0.8066597361591727  1.0000
  O   O6        1.0  0.14483283390381257  0.6135215819490925  0.8316648643603153  1.0000
  O   O7        1.0  0.18798627394611622  0.2704299621607231  0.6265746162880714  1.0000
  O   O8        1.0  0.7975916698319085  0.8821219897234516  0.18609544074102446  1.0000
  O   O9        1.0  0.7891394280309711  0.6112372646692004  0.5055913833992797  1.0000
  O   O10       1.0  0.20932004125602358  0.9170766588323656  0.6581365533600491  1.0000
data_image60
_chemical_formula_structural       Cu2C6N4O10
_chemical_formula_sum              "Cu2 C6 N4 O10"
_cell_length_a       6.950721000000001
_cell_length_b       7.113486077992492
_cell_length_c       8.6539786637408
_cell_angle_alpha    105.43300670560022
_cell_angle_beta     90.64948243757532
_cell_angle_gamma    112.19062950933201

_space_group_name_H-M_alt    "P 1"
_space_group_IT_number       1

loop_
  _space_group_symop_operation_xyz
  'x, y, z'

loop_
  _atom_site_type_symbol
  _atom_site_label
  _atom_site_symmetry_multiplicity
  _atom_site_fract_x
  _atom_site_fract_y
  _atom_site_fract_z
  _atom_site_occupancy
  Cu  Cu1       1.0  0.3240280004755356  0.6885486602625913  0.4192435467722323  1.0000
  Cu  Cu2       1.0  0.6593997087370655  0.46111041134859465  0.19196687327411732  1.0000
  C   C1        1.0  0.29630863743946223  0.6933274481014862  0.8975061997216698  1.0000
  C   C2        1.0  0.7584721182819791  0.2326250812592643  0.7686638066179183  1.0000
  C   C3        1.0  0.7857632400541378  0.9338304633655474  0.16774575990397025  1.0000
  C   C4        1.0  0.15525337509279358  0.21056461229472667  0.5755379809854387  1.0000
  C   C5        1.0  0.6106118480941536  0.4532050772360652  0.39295916736794584  1.0000
  C   C6        1.0  0.14075734801480835  0.7068369985424937  0.611822828630797  1.0000
  N   N1        1.0  0.3285583044923339  0.1449025390390508  0.9533394463385768  1.0000
  N   N2        1.0  0.2612298481741575  0.8614751833802632  0.17532981237362305  1.0000
  N   N3        1.0  0.4514116787468492  0.2198127052189491  0.05645011779857523  1.0000
  N   N4        1.0  0.21659274758267644  0.7062875413420882  0.21909553698398207  1.0000
  O   O1        1.0  0.47358451555297837  0.7181228705135524  0.9335637762132568  1.0000
  O   O2        1.0  0.6746449096799292  0.21160761180320198  0.6402068155680372  1.0000
  O   O3        1.0  0.6923740224065207  0.03908575180731344  0.2076588663969455  1.0000
  O   O4        1.0  0.1717955541644316  0.14799950477808377  0.4354410296702099  1.0000
  O   O5        1.0  0.8066656498072369  0.22242065275628997  0.8981147751048931  1.0000
  O   O6        1.0  0.1391045724018267  0.6929675741365389  0.8370686344861817  1.0000
  O   O7        1.0  0.15992999398055452  0.3027184425408165  0.7107763474151445  1.0000
  O   O8        1.0  0.840066859873545  0.7924231061089071  0.12153583107902399  1.0000
  O   O9        1.0  0.7428141232718171  0.513063796168747  0.5089883586633162  1.0000
  O   O10       1.0  0.21737523971328096  0.9026736907543572  0.6115459297614229  1.0000
data_image61
_chemical_formula_structural       Cu2C6N4O10
_chemical_formula_sum              "Cu2 C6 N4 O10"
_cell_length_a       6.950721000000001
_cell_length_b       7.113486077992492
_cell_length_c       8.6539786637408
_cell_angle_alpha    105.43300670560022
_cell_angle_beta     90.64948243757532
_cell_angle_gamma    112.19062950933201

_space_group_name_H-M_alt    "P 1"
_space_group_IT_number       1

loop_
  _space_group_symop_operation_xyz
  'x, y, z'

loop_
  _atom_site_type_symbol
  _atom_site_label
  _atom_site_symmetry_multiplicity
  _atom_site_fract_x
  _atom_site_fract_y
  _atom_site_fract_z
  _atom_site_occupancy
  Cu  Cu1       1.0  0.40879481503667137  0.6197068005146528  0.37574912477381617  1.0000
  Cu  Cu2       1.0  0.669175502704242  0.4934726858189842  0.17711670790086925  1.0000
  C   C1        1.0  0.2743214367016744  0.6832643590854726  0.9241489172926612  1.0000
  C   C2        1.0  0.6651093147748706  0.19322178321280403  0.8038081935753996  1.0000
  C   C3        1.0  0.8333718739224912  0.9028270229556745  0.07827754948142024  1.0000
  C   C4        1.0  0.09063378510136588  0.20238447224834655  0.5892674691548622  1.0000
  C   C5        1.0  0.5897388576541259  0.5241203839996378  0.4017562353110095  1.0000
  C   C6        1.0  0.19369351138607438  0.7850041577526424  0.5642371422006686  1.0000
  N   N1        1.0  0.2397706012144183  0.14342386843340688  0.05637552571199178  1.0000
  N   N2        1.0  0.393826669455664  0.9592965204993695  0.3558303149488043  1.0000
  N   N3        1.0  0.377104986818261  0.22305639458894289  0.0019502040414502986  1.0000
  N   N4        1.0  0.39464286437403606  0.8236319436073334  0.25839359586224675  1.0000
  O   O1        1.0  0.46903279760084654  0.7241917898410518  0.8915520917181109  1.0000
  O   O2        1.0  0.5652747219996965  0.1089012658765085  0.6703756116416775  1.0000
  O   O3        1.0  0.8723127919529622  0.0844742811464605  0.09834510010740762  1.0000
  O   O4        1.0  0.12319064654908618  0.21667699687577358  0.4618425162475693  1.0000
  O   O5        1.0  0.7934025931549956  0.33498342596159847  0.9079702583141471  1.0000
  O   O6        1.0  0.10951522218377095  0.6846758254597767  0.9606833272809674  1.0000
  O   O7        1.0  0.07115277891742666  0.21573393420895481  0.7292400713734892  1.0000
  O   O8        1.0  0.7700824237830488  0.7243297674721847  0.061147057039689034  1.0000
  O   O9        1.0  0.6603832127530462  0.5589244918171485  0.5390783656712271  1.0000
  O   O10       1.0  0.05304364163635754  0.7990480164181243  0.6213227351529803  1.0000
data_image62
_chemical_formula_structural       Cu2C6N4O10
_chemical_formula_sum              "Cu2 C6 N4 O10"
_cell_length_a       6.950721000000001
_cell_length_b       7.113486077992492
_cell_length_c       8.6539786637408
_cell_angle_alpha    105.43300670560022
_cell_angle_beta     90.64948243757532
_cell_angle_gamma    112.19062950933201

_space_group_name_H-M_alt    "P 1"
_space_group_IT_number       1

loop_
  _space_group_symop_operation_xyz
  'x, y, z'

loop_
  _atom_site_type_symbol
  _atom_site_label
  _atom_site_symmetry_multiplicity
  _atom_site_fract_x
  _atom_site_fract_y
  _atom_site_fract_z
  _atom_site_occupancy
  Cu  Cu1       1.0  0.3522208050323641  0.6024503647285366  0.2860963507369358  1.0000
  Cu  Cu2       1.0  0.6429461736174082  0.5038581423975479  0.24451249146709017  1.0000
  C   C1        1.0  0.2656308325471407  0.7005334038479324  0.9256112517719106  1.0000
  C   C2        1.0  0.6731663147974725  0.23087816400721084  0.8379955133184295  1.0000
  C   C3        1.0  0.8168629298502605  0.8770078353121413  0.04936607160331869  1.0000
  C   C4        1.0  0.056990773798227146  0.1125595608704133  0.5930835437448346  1.0000
  C   C5        1.0  0.7380480298528517  0.527693681195138  0.44438574823759225  1.0000
  C   C6        1.0  0.2531789264895217  0.6033316396995745  0.5604535142538445  1.0000
  N   N1        1.0  0.4191444366520687  0.40439492100634417  0.06420079998564021  1.0000
  N   N2        1.0  0.40455702504065294  0.025594402438848363  0.2551491308737861  1.0000
  N   N3        1.0  0.3505787508186924  0.24949017648903385  0.9590592071871514  1.0000
  N   N4        1.0  0.43818956750722515  0.011290015311193446  0.3828619275411379  1.0000
  O   O1        1.0  0.35954510943780554  0.5976363494075949  0.8715428284092578  1.0000
  O   O2        1.0  0.5282427214559091  0.1055689550125829  0.73806656452218  1.0000
  O   O3        1.0  0.8517568742814328  0.04848551703226478  0.027738493617955644  1.0000
  O   O4        1.0  0.11886352638602848  0.16538310638689202  0.48397498619789536  1.0000
  O   O5        1.0  0.8096903935091453  0.38813508953140374  0.9172280707222078  1.0000
  O   O6        1.0  0.16784515197621355  0.8158626160498127  0.9873585259989983  1.0000
  O   O7        1.0  0.9567979841548145  0.10474323992340606  0.7093024806435972  1.0000
  O   O8        1.0  0.7584161177129127  0.7153260906189578  0.07377290493310029  1.0000
  O   O9        1.0  0.7498768504591646  0.4878556471551224  0.5613376155115968  1.0000
  O   O10       1.0  0.2160706376023949  0.7553805098914899  0.6331475649039219  1.0000
data_image63
_chemical_formula_structural       Cu2C6N4O10
_chemical_formula_sum              "Cu2 C6 N4 O10"
_cell_length_a       6.950721000000001
_cell_length_b       7.113486077992492
_cell_length_c       8.6539786637408
_cell_angle_alpha    105.43300670560022
_cell_angle_beta     90.64948243757532
_cell_angle_gamma    112.19062950933201

_space_group_name_H-M_alt    "P 1"
_space_group_IT_number       1

loop_
  _space_group_symop_operation_xyz
  'x, y, z'

loop_
  _atom_site_type_symbol
  _atom_site_label
  _atom_site_symmetry_multiplicity
  _atom_site_fract_x
  _atom_site_fract_y
  _atom_site_fract_z
  _atom_site_occupancy
  Cu  Cu1       1.0  0.3941774008564376  0.5705256653780465  0.2829189646408118  1.0000
  Cu  Cu2       1.0  0.6917791962597852  0.5133053959915104  0.24362764219575977  1.0000
  C   C1        1.0  0.15643210393875573  0.8025456139170005  0.9653907328383624  1.0000
  C   C2        1.0  0.7061676751895736  0.23640306951540535  0.7765104931970983  1.0000
  C   C3        1.0  0.676262755290884  0.9193203813245194  0.053171289427902196  1.0000
  C   C4        1.0  0.9277927397280563  0.9445978955970933  0.5790316234243773  1.0000
  C   C5        1.0  0.8433712147835213  0.47358792472196376  0.4426669367158535  1.0000
  C   C6        1.0  0.4278222844508047  0.6938726844237845  0.49857740367696907  1.0000
  N   N1        1.0  0.4051285592244951  0.4173412498245407  0.06137560589824331  1.0000
  N   N2        1.0  0.4341146455570023  0.012434853554659675  0.38818547151056476  1.0000
  N   N3        1.0  0.33197597676058543  0.40851843984740993  0.9454193291491477  1.0000
  N   N4        1.0  0.37111437080081333  0.15201378079685002  0.4357928996333796  1.0000
  O   O1        1.0  0.22595708484672253  0.6781496897136366  0.9660538335239495  1.0000
  O   O2        1.0  0.5523407205247665  0.0766666808898302  0.7034349672849504  1.0000
  O   O3        1.0  0.7295347992531855  0.10147854474616458  0.06288576328110239  1.0000
  O   O4        1.0  0.8914634010878993  0.9866306037795953  0.46901142247103966  1.0000
  O   O5        1.0  0.8483337962274345  0.3949737118279768  0.8466535757428292  1.0000
  O   O6        1.0  0.14516128267952585  0.9711951162685922  0.99080205440199  1.0000
  O   O7        1.0  0.9624260633339863  0.8793737672886288  0.6786566442311806  1.0000
  O   O8        1.0  0.6655505776348454  0.7421439049738492  0.021121261589628015  1.0000
  O   O9        1.0  0.7965435285251568  0.4831062764619095  0.5720370561583489  1.0000
  O   O10       1.0  0.4520403779877292  0.6837754193296091  0.632549419087091  1.0000
data_image64
_chemical_formula_structural       Cu2C6N4O10
_chemical_formula_sum              "Cu2 C6 N4 O10"
_cell_length_a       6.950721000000001
_cell_length_b       7.113486077992492
_cell_length_c       8.6539786637408
_cell_angle_alpha    105.43300670560022
_cell_angle_beta     90.64948243757532
_cell_angle_gamma    112.19062950933201

_space_group_name_H-M_alt    "P 1"
_space_group_IT_number       1

loop_
  _space_group_symop_operation_xyz
  'x, y, z'

loop_
  _atom_site_type_symbol
  _atom_site_label
  _atom_site_symmetry_multiplicity
  _atom_site_fract_x
  _atom_site_fract_y
  _atom_site_fract_z
  _atom_site_occupancy
  Cu  Cu1       1.0  0.41167542001170854  0.5948812694154688  0.27346936629123647  1.0000
  Cu  Cu2       1.0  0.7372819670325768  0.47493401597107354  0.18737498479732762  1.0000
  C   C1        1.0  0.1783933613494736  0.9243961047542806  0.06074765294512208  1.0000
  C   C2        1.0  0.6018144118553198  0.18456111422653332  0.7707326249756055  1.0000
  C   C3        1.0  0.6516327810687422  0.01389639506654583  0.017570947198961875  1.0000
  C   C4        1.0  0.025310995513015966  0.9268731597499822  0.6779629510827422  1.0000
  C   C5        1.0  0.7492760541000618  0.4291654164624896  0.3845785663759469  1.0000
  C   C6        1.0  0.3812305373081825  0.5191715016869858  0.48046715338224605  1.0000
  N   N1        1.0  0.3615948363272736  0.4404467105936579  0.008207881326462108  1.0000
  N   N2        1.0  0.3318952306787242  0.09168033483837723  0.38425806973528653  1.0000
  N   N3        1.0  0.45242000716910913  0.4233693245942927  0.9053326853919037  1.0000
  N   N4        1.0  0.28639557957433714  0.13836153861229672  0.5210951562232524  1.0000
  O   O1        1.0  0.24187178831403364  0.8065778752024683  0.08773393045461875  1.0000
  O   O2        1.0  0.45794142147950895  0.022247303617385583  0.7606521339819857  1.0000
  O   O3        1.0  0.6646313244248006  0.20309100548591152  0.08265121113751636  1.0000
  O   O4        1.0  0.9929015352608586  0.07196388719797042  0.669558466549473  1.0000
  O   O5        1.0  0.7643407525019574  0.31163023672146695  0.8267615070104997  1.0000
  O   O6        1.0  0.13557038951568418  0.0458139324638811  0.017152654416986213  1.0000
  O   O7        1.0  0.09952651526363332  0.8052358941304247  0.6475230601624535  1.0000
  O   O8        1.0  0.6505729508270537  0.8539068147845617  0.9649433364165416  1.0000
  O   O9        1.0  0.7798117969839684  0.3549479258873095  0.48701545347676656  1.0000
  O   O10       1.0  0.4407148875601077  0.5447450527890458  0.6116112661592503  1.0000
data_image65
_chemical_formula_structural       Cu2C6N4O10
_chemical_formula_sum              "Cu2 C6 N4 O10"
_cell_length_a       6.950721000000001
_cell_length_b       7.113486077992492
_cell_length_c       8.6539786637408
_cell_angle_alpha    105.43300670560022
_cell_angle_beta     90.64948243757532
_cell_angle_gamma    112.19062950933201

_space_group_name_H-M_alt    "P 1"
_space_group_IT_number       1

loop_
  _space_group_symop_operation_xyz
  'x, y, z'

loop_
  _atom_site_type_symbol
  _atom_site_label
  _atom_site_symmetry_multiplicity
  _atom_site_fract_x
  _atom_site_fract_y
  _atom_site_fract_z
  _atom_site_occupancy
  Cu  Cu1       1.0  0.35064098153043344  0.6223102023709273  0.3065569075943427  1.0000
  Cu  Cu2       1.0  0.7115756126512593  0.45637698873998067  0.2120339852350957  1.0000
  C   C1        1.0  0.1696696042435118  0.9471952789397196  0.05884504703014892  1.0000
  C   C2        1.0  0.6275298188522217  0.2234534969088917  0.75004212087044  1.0000
  C   C3        1.0  0.6626197476695491  0.8778782204465361  0.9639296757587564  1.0000
  C   C4        1.0  0.008748416632865963  0.8140385123333669  0.7099001078737089  1.0000
  C   C5        1.0  0.8524381158549853  0.4579408540415004  0.3897274299412882  1.0000
  C   C6        1.0  0.4926010843062055  0.7596863976824086  0.492437260216882  1.0000
  N   N1        1.0  0.3072903179035471  0.5155734948809052  0.06080143559321627  1.0000
  N   N2        1.0  0.3486516207039466  0.14801662958063577  0.38052420184799807  1.0000
  N   N3        1.0  0.34658928752716034  0.4003799199629885  0.9681769374020969  1.0000
  N   N4        1.0  0.2865864288938327  0.17181359995992684  0.4918974685164397  1.0000
  O   O1        1.0  0.21588078578515657  0.8035595818510077  0.03664263956121028  1.0000
  O   O2        1.0  0.45614416436359845  0.1668202617657757  0.7648273726140115  1.0000
  O   O3        1.0  0.6152070243575452  0.9561833404347149  0.07541874096259049  1.0000
  O   O4        1.0  0.9830062448030377  0.9574633205346428  0.6791098588722855  1.0000
  O   O5        1.0  0.7834936072547182  0.28590386987903904  0.6945477139632203  1.0000
  O   O6        1.0  0.1315856933587835  0.08893014838247892  0.055178899329508146  1.0000
  O   O7        1.0  0.11284496891365325  0.7110562085917569  0.7232772343391936  1.0000
  O   O8        1.0  0.7416058367857884  0.80255923966546  0.860397388631791  1.0000
  O   O9        1.0  0.9575627693320016  0.3755767155706644  0.4183750796624059  1.0000
  O   O10       1.0  0.5291716730604458  0.6523296908258804  0.5667922778510435  1.0000
data_image66
_chemical_formula_structural       Cu2C6N4O10
_chemical_formula_sum              "Cu2 C6 N4 O10"
_cell_length_a       6.950721000000001
_cell_length_b       7.113486077992492
_cell_length_c       8.6539786637408
_cell_angle_alpha    105.43300670560022
_cell_angle_beta     90.64948243757532
_cell_angle_gamma    112.19062950933201

_space_group_name_H-M_alt    "P 1"
_space_group_IT_number       1

loop_
  _space_group_symop_operation_xyz
  'x, y, z'

loop_
  _atom_site_type_symbol
  _atom_site_label
  _atom_site_symmetry_multiplicity
  _atom_site_fract_x
  _atom_site_fract_y
  _atom_site_fract_z
  _atom_site_occupancy
  Cu  Cu1       1.0  0.3312143931193856  0.733556529848663  0.3283786068587053  1.0000
  Cu  Cu2       1.0  0.6855366435606611  0.41053247783200086  0.1936594161571776  1.0000
  C   C1        1.0  0.19909183306035008  0.9903223201515795  0.09889691021984781  1.0000
  C   C2        1.0  0.7198993132454332  0.23767505551373969  0.7438753065507314  1.0000
  C   C3        1.0  0.6335404508299983  0.824537861624006  0.0521313946917586  1.0000
  C   C4        1.0  0.01695623320395412  0.8038162892306815  0.6267534437171922  1.0000
  C   C5        1.0  0.8298883483290422  0.2667484300609474  0.24212329314014486  1.0000
  C   C6        1.0  0.5049103021064649  0.7025259663795291  0.4800229094800986  1.0000
  N   N1        1.0  0.27022600591568247  0.41188889529550743  0.0583583428262886  1.0000
  N   N2        1.0  0.39121457807017734  0.13366957931260082  0.3917658984507206  1.0000
  N   N3        1.0  0.32054099411575443  0.41744457988706885  0.9313554298973488  1.0000
  N   N4        1.0  0.3349576751073129  0.26073779579143475  0.40187996030375656  1.0000
  O   O1        1.0  0.3575697876187811  0.9980862709150948  0.038687049602241785  1.0000
  O   O2        1.0  0.5522694434679354  0.2045532639146499  0.7596713268333773  1.0000
  O   O3        1.0  0.6136314207285029  0.9081781878657775  0.18564960561413027  1.0000
  O   O4        1.0  0.03299544072076088  0.9502497676809483  0.5719779736172758  1.0000
  O   O5        1.0  0.8908627531166593  0.28707460930026896  0.72245552449444  1.0000
  O   O6        1.0  0.0331183601260538  0.9522040601611986  0.14612799153799183  1.0000
  O   O7        1.0  0.026224209638333607  0.7062522338793202  0.7059622738835676  1.0000
  O   O8        1.0  0.6403790231639922  0.7133433371888727  0.9388563703247623  1.0000
  O   O9        1.0  0.9355391235169463  0.31138555101757537  0.3711861196715752  1.0000
  O   O10       1.0  0.5344555105857546  0.7138684503186459  0.6133240159482792  1.0000
data_image67
_chemical_formula_structural       Cu2C6N4O10
_chemical_formula_sum              "Cu2 C6 N4 O10"
_cell_length_a       6.950721000000001
_cell_length_b       7.113486077992492
_cell_length_c       8.6539786637408
_cell_angle_alpha    105.43300670560022
_cell_angle_beta     90.64948243757532
_cell_angle_gamma    112.19062950933201

_space_group_name_H-M_alt    "P 1"
_space_group_IT_number       1

loop_
  _space_group_symop_operation_xyz
  'x, y, z'

loop_
  _atom_site_type_symbol
  _atom_site_label
  _atom_site_symmetry_multiplicity
  _atom_site_fract_x
  _atom_site_fract_y
  _atom_site_fract_z
  _atom_site_occupancy
  Cu  Cu1       1.0  0.2746748363954361  0.7657404387659249  0.3746984514798825  1.0000
  Cu  Cu2       1.0  0.7302092595628447  0.3527600722010148  0.15743486244778648  1.0000
  C   C1        1.0  0.20736399590071874  0.9406546969643189  0.09424348840347596  1.0000
  C   C2        1.0  0.7298484918891155  0.26256975248472036  0.7331373662424235  1.0000
  C   C3        1.0  0.6503531494549109  0.8168291870317037  0.05879356430570399  1.0000
  C   C4        1.0  0.024311962654350205  0.889397771480879  0.5986915551688147  1.0000
  C   C5        1.0  0.902823016313816  0.4101183158234569  0.3131324161326694  1.0000
  C   C6        1.0  0.47853748368387755  0.7058093151834273  0.4859075967672495  1.0000
  N   N1        1.0  0.24134165104152627  0.3630377611096551  0.01352225817138164  1.0000
  N   N2        1.0  0.4795886435468477  0.09508968648882288  0.44138024024909045  1.0000
  N   N3        1.0  0.27813884327367555  0.38799418711748174  0.9013686211704849  1.0000
  N   N4        1.0  0.44968312389746545  0.23206451773338932  0.4614399250731498  1.0000
  O   O1        1.0  0.3521591942307431  0.10169865443607162  0.137980158506241  1.0000
  O   O2        1.0  0.5525269334283219  0.1979000075057451  0.7535113455311997  1.0000
  O   O3        1.0  0.6254724815949906  0.9538842115609889  0.1609229550158692  1.0000
  O   O4        1.0  0.020066545684161996  0.9053250159216841  0.4745677567657014  1.0000
  O   O5        1.0  0.9099351444066974  0.3369778329957698  0.7100011935374987  1.0000
  O   O6        1.0  0.06251409136616036  0.7855495888906606  0.037711547991861494  1.0000
  O   O7        1.0  0.0012496622328861395  0.7907085089460246  0.7007614273378089  1.0000
  O   O8        1.0  0.5968251136983356  0.6625425541948451  0.9194937040121349  1.0000
  O   O9        1.0  0.874713446836338  0.37712173139328986  0.4412233894806862  1.0000
  O   O10       1.0  0.4854705754757765  0.7151621165995792  0.6189269054698686  1.0000
data_image68
_chemical_formula_structural       Cu2C6N4O10
_chemical_formula_sum              "Cu2 C6 N4 O10"
_cell_length_a       6.950721000000001
_cell_length_b       7.113486077992492
_cell_length_c       8.6539786637408
_cell_angle_alpha    105.43300670560022
_cell_angle_beta     90.64948243757532
_cell_angle_gamma    112.19062950933201

_space_group_name_H-M_alt    "P 1"
_space_group_IT_number       1

loop_
  _space_group_symop_operation_xyz
  'x, y, z'

loop_
  _atom_site_type_symbol
  _atom_site_label
  _atom_site_symmetry_multiplicity
  _atom_site_fract_x
  _atom_site_fract_y
  _atom_site_fract_z
  _atom_site_occupancy
  Cu  Cu1       1.0  0.15793242342490932  0.6228954811014576  0.3019457705123804  1.0000
  Cu  Cu2       1.0  0.7275480707690114  0.39683539795136746  0.20928272954466967  1.0000
  C   C1        1.0  0.21642631302331983  0.902729941617429  0.10202580479467849  1.0000
  C   C2        1.0  0.7399965871054454  0.2983269901629475  0.8016225135755959  1.0000
  C   C3        1.0  0.7440949048554013  0.8678773097596115  0.004954218186231906  1.0000
  C   C4        1.0  0.9768396096000598  0.8731731208218407  0.5872549199800667  1.0000
  C   C5        1.0  0.9264272307165494  0.4121848377540194  0.3697520175594319  1.0000
  C   C6        1.0  0.3396415709583397  0.7387533442580945  0.4867694170283094  1.0000
  N   N1        1.0  0.32910344855480855  0.44190155898120403  0.01338833037905407  1.0000
  N   N2        1.0  0.5095369018488791  0.2525360849477405  0.4998995318658176  1.0000
  N   N3        1.0  0.2961006657687919  0.4103843953893564  0.8760795449158977  1.0000
  N   N4        1.0  0.488601679004642  0.2193996996321146  0.3703508581754266  1.0000
  O   O1        1.0  0.334144156131736  0.9945211179048502  0.024346386270770903  1.0000
  O   O2        1.0  0.568205984630561  0.19574289535050227  0.8130473928705829  1.0000
  O   O3        1.0  0.8018526206785807  0.995180132988223  0.13506539807956452  1.0000
  O   O4        1.0  0.9509453189475792  0.9298712297728111  0.47858717903400533  1.0000
  O   O5        1.0  0.9194238909367677  0.39909132031674943  0.8204594975716188  1.0000
  O   O6        1.0  0.1180127891857473  0.7737079243700228  0.15466094992798873  1.0000
  O   O7        1.0  0.001241244498031202  0.8397386948795706  0.7080782854294834  1.0000
  O   O8        1.0  0.6664201313273899  0.7020901325577249  0.9004715352815342  1.0000
  O   O9        1.0  0.9769526506842231  0.37812517146228053  0.48203558523663964  1.0000
  O   O10       1.0  0.5066287334736593  0.74955937215301  0.5242510638514258  1.0000
data_image69
_chemical_formula_structural       Cu2C6N4O10
_chemical_formula_sum              "Cu2 C6 N4 O10"
_cell_length_a       6.950721000000001
_cell_length_b       7.113486077992492
_cell_length_c       8.6539786637408
_cell_angle_alpha    105.43300670560022
_cell_angle_beta     90.64948243757532
_cell_angle_gamma    112.19062950933201

_space_group_name_H-M_alt    "P 1"
_space_group_IT_number       1

loop_
  _space_group_symop_operation_xyz
  'x, y, z'

loop_
  _atom_site_type_symbol
  _atom_site_label
  _atom_site_symmetry_multiplicity
  _atom_site_fract_x
  _atom_site_fract_y
  _atom_site_fract_z
  _atom_site_occupancy
  Cu  Cu1       1.0  0.22926432125471874  0.5499360583240057  0.31117302826685533  1.0000
  Cu  Cu2       1.0  0.7252550008753698  0.40363854025979506  0.24541092318321947  1.0000
  C   C1        1.0  0.23810977844160647  0.9324285700452665  0.04847139960315583  1.0000
  C   C2        1.0  0.7117876768728094  0.3574581453737049  0.8243164304411396  1.0000
  C   C3        1.0  0.7032097539632003  0.8535564829713242  0.9886893894028359  1.0000
  C   C4        1.0  0.9992410222116158  0.8598338205821787  0.6481493488622577  1.0000
  C   C5        1.0  0.9043089624947395  0.35273573814979375  0.3421357737952153  1.0000
  C   C6        1.0  0.47286187635124743  0.6907715685882859  0.4432748177757361  1.0000
  N   N1        1.0  0.2666473669247793  0.4531996304265556  0.0033856483539929094  1.0000
  N   N2        1.0  0.3751773564697434  0.2696198317749414  0.4246935692188016  1.0000
  N   N3        1.0  0.19336149415103376  0.3501985417587597  0.8841062465752983  1.0000
  N   N4        1.0  0.4228894535248746  0.3659366399486128  0.3357886131081012  1.0000
  O   O1        1.0  0.33572638807717625  0.926686262924339  0.9305863972179584  1.0000
  O   O2        1.0  0.5831321247908015  0.24791768806261705  0.718896703111183  1.0000
  O   O3        1.0  0.8008482454971728  0.9597870284180645  0.10986201793661131  1.0000
  O   O4        1.0  0.03669804814138433  0.9824481134685918  0.5616365407744252  1.0000
  O   O5        1.0  0.8462095582660112  0.509943488037305  0.9287485771882983  1.0000
  O   O6        1.0  0.16996470451369997  0.9315072347739046  0.1736100358501549  1.0000
  O   O7        1.0  0.023978013115630192  0.79266282450561  0.7475413777729598  1.0000
  O   O8        1.0  0.607676292710567  0.740945730727415  0.8541810573610058  1.0000
  O   O9        1.0  0.9193773507421654  0.22744251398641535  0.4127459830952777  1.0000
  O   O10       1.0  0.4958006792838173  0.8362206237932778  0.5619317250478106  1.0000
data_image70
_chemical_formula_structural       Cu2C6N4O10
_chemical_formula_sum              "Cu2 C6 N4 O10"
_cell_length_a       6.950721000000001
_cell_length_b       7.113486077992492
_cell_length_c       8.6539786637408
_cell_angle_alpha    105.43300670560022
_cell_angle_beta     90.64948243757532
_cell_angle_gamma    112.19062950933201

_space_group_name_H-M_alt    "P 1"
_space_group_IT_number       1

loop_
  _space_group_symop_operation_xyz
  'x, y, z'

loop_
  _atom_site_type_symbol
  _atom_site_label
  _atom_site_symmetry_multiplicity
  _atom_site_fract_x
  _atom_site_fract_y
  _atom_site_fract_z
  _atom_site_occupancy
  Cu  Cu1       1.0  0.19930787841218178  0.6222748461394499  0.27852198187081695  1.0000
  Cu  Cu2       1.0  0.8280816391268199  0.4789072523895168  0.33765069329673847  1.0000
  C   C1        1.0  0.2672268451743003  0.9319298458907369  0.027725468927230157  1.0000
  C   C2        1.0  0.6955427045181244  0.33815216396244274  0.766461768110957  1.0000
  C   C3        1.0  0.5850562467641105  0.8124984479916111  0.8708223065552523  1.0000
  C   C4        1.0  0.10116265902808519  0.812298622991829  0.6940507736667981  1.0000
  C   C5        1.0  0.9190417291511399  0.2897665619194839  0.3619208663803601  1.0000
  C   C6        1.0  0.43222141012202536  0.7624497942209952  0.4416558380234317  1.0000
  N   N1        1.0  0.13895602696187082  0.38797253360615336  0.10450476104728046  1.0000
  N   N2        1.0  0.370252463530774  0.2667373695667119  0.41705844953489585  1.0000
  N   N3        1.0  0.04834190688574447  0.3066363472720961  0.9802983487277087  1.0000
  N   N4        1.0  0.5370262157268443  0.34310869296141844  0.3950169613419536  1.0000
  O   O1        1.0  0.3672883864405105  0.07655345565175309  0.96508784891974  1.0000
  O   O2        1.0  0.708979853257605  0.3268542973497297  0.6339539338997546  1.0000
  O   O3        1.0  0.7168418618295574  0.9663519699552852  0.9375737441453584  1.0000
  O   O4        1.0  0.14190074420171306  0.9403801672341057  0.6111495709767324  1.0000
  O   O5        1.0  0.7075224378143177  0.38889639573453616  0.9147935530800376  1.0000
  O   O6        1.0  0.18851484478520367  0.8031848891192485  0.10238505213772164  1.0000
  O   O7        1.0  0.004628573980890671  0.6653270070281918  0.7386612354769111  1.0000
  O   O8        1.0  0.4558670281037273  0.6551698456256063  0.8096454432399294  1.0000
  O   O9        1.0  0.8476194284646498  0.1267425298167787  0.3802433967023889  1.0000
  O   O10       1.0  0.5517815763993175  0.8070509701117171  0.5486984971268137  1.0000
data_image71
_chemical_formula_structural       Cu2C6N4O10
_chemical_formula_sum              "Cu2 C6 N4 O10"
_cell_length_a       6.950721000000001
_cell_length_b       7.113486077992492
_cell_length_c       8.6539786637408
_cell_angle_alpha    105.43300670560022
_cell_angle_beta     90.64948243757532
_cell_angle_gamma    112.19062950933201

_space_group_name_H-M_alt    "P 1"
_space_group_IT_number       1

loop_
  _space_group_symop_operation_xyz
  'x, y, z'

loop_
  _atom_site_type_symbol
  _atom_site_label
  _atom_site_symmetry_multiplicity
  _atom_site_fract_x
  _atom_site_fract_y
  _atom_site_fract_z
  _atom_site_occupancy
  Cu  Cu1       1.0  0.20621059890479998  0.738522491212352  0.2521713467843399  1.0000
  Cu  Cu2       1.0  0.8990989786716411  0.5082511561778289  0.3950079890663937  1.0000
  C   C1        1.0  0.3247330063288049  0.9901115401225614  0.047365750482717406  1.0000
  C   C2        1.0  0.6692334503706794  0.3023061255381083  0.8370398018893925  1.0000
  C   C3        1.0  0.44103343807210527  0.6126972741781662  0.7674931312880462  1.0000
  C   C4        1.0  0.9609295537207677  0.809836242242385  0.6994090324844011  1.0000
  C   C5        1.0  0.021580691374429806  0.3379469505351197  0.4139204236138096  1.0000
  C   C6        1.0  0.42473575884745524  0.7107425253990921  0.39310050761376514  1.0000
  N   N1        1.0  0.029632802139253123  0.3776192251080542  0.09727212478352953  1.0000
  N   N2        1.0  0.48248995120941296  0.22075644610377054  0.34776237699812107  1.0000
  N   N3        1.0  0.039347714216417584  0.21944259657320925  0.08506415365055431  1.0000
  N   N4        1.0  0.6359288282882201  0.34894240386796715  0.3367256298671121  1.0000
  O   O1        1.0  0.32206115285570014  0.1472551739170056  0.009103162592465797  1.0000
  O   O2        1.0  0.6825537903601188  0.2021509383177318  0.7042532714545003  1.0000
  O   O3        1.0  0.5324693364377295  0.7919393101904095  0.8188263787379235  1.0000
  O   O4        1.0  0.9313948374474633  0.9588395451784999  0.7705989798891603  1.0000
  O   O5        1.0  0.6810286793998199  0.42595346683407476  0.9602110629735248  1.0000
  O   O6        1.0  0.18431333646075845  0.845181869427694  0.09438087401007555  1.0000
  O   O7        1.0  0.01870320946120363  0.6770886291706342  0.6616991496434246  1.0000
  O   O8        1.0  0.3683115472996815  0.43387244666367697  0.7193625521048634  1.0000
  O   O9        1.0  0.13108634786506784  0.2558165974044666  0.3640160396731483  1.0000
  O   O10       1.0  0.5752817228590412  0.7038891445574891  0.443359715712732  1.0000
data_image72
_chemical_formula_structural       Cu2C6N4O10
_chemical_formula_sum              "Cu2 C6 N4 O10"
_cell_length_a       6.950721000000001
_cell_length_b       7.113486077992492
_cell_length_c       8.6539786637408
_cell_angle_alpha    105.43300670560022
_cell_angle_beta     90.64948243757532
_cell_angle_gamma    112.19062950933201

_space_group_name_H-M_alt    "P 1"
_space_group_IT_number       1

loop_
  _space_group_symop_operation_xyz
  'x, y, z'

loop_
  _atom_site_type_symbol
  _atom_site_label
  _atom_site_symmetry_multiplicity
  _atom_site_fract_x
  _atom_site_fract_y
  _atom_site_fract_z
  _atom_site_occupancy
  Cu  Cu1       1.0  0.2522926409964792  0.6841136358264138  0.2491647087202638  1.0000
  Cu  Cu2       1.0  0.9491495619515554  0.536273604324258  0.42161223646212437  1.0000
  C   C1        1.0  0.35634275305600965  0.05788921951681303  0.10332716834110012  1.0000
  C   C2        1.0  0.6915498533290356  0.48382078509574744  0.8945522416359141  1.0000
  C   C3        1.0  0.3109163458516847  0.5047335032096414  0.7279951104725416  1.0000
  C   C4        1.0  0.9505578943526829  0.8759249226736316  0.7338298013887303  1.0000
  C   C5        1.0  0.12050660879196688  0.3628844053599253  0.3424827401540572  1.0000
  C   C6        1.0  0.5010856329264212  0.8350117946850821  0.37522886589883075  1.0000
  N   N1        1.0  0.8623281894456509  0.2653272546023235  0.0229716628047143  1.0000
  N   N2        1.0  0.6338563147065659  0.2777476527779412  0.46187338859974797  1.0000
  N   N3        1.0  0.8430339356767245  0.11127467771603486  0.05039309248705748  1.0000
  N   N4        1.0  0.6763681865243567  0.15570134932004587  0.36843989258019333  1.0000
  O   O1        1.0  0.33632581621132396  0.13166261991711403  0.004823216342753955  1.0000
  O   O2        1.0  0.70705103941053  0.3320581549711472  0.7930217693840482  1.0000
  O   O3        1.0  0.22694382784419043  0.6214889098232135  0.7725375915844803  1.0000
  O   O4        1.0  0.9737827630544514  0.04746460386055951  0.7344371321053432  1.0000
  O   O5        1.0  0.6662934169757111  0.6215208154042913  0.9836517547550702  1.0000
  O   O6        1.0  0.2658696704166781  0.8634387809115779  0.11348842848761787  1.0000
  O   O7        1.0  0.9082033564989003  0.6971890830618532  0.6868553410123353  1.0000
  O   O8        1.0  0.3192512794824193  0.3400419801673382  0.6602103065878824  1.0000
  O   O9        1.0  0.1390136515428858  0.21368412563494565  0.3453867610107633  1.0000
  O   O10       1.0  0.5860993687080878  0.7219591652345457  0.30947224566444537  1.0000
data_image73
_chemical_formula_structural       Cu2C6N4O10
_chemical_formula_sum              "Cu2 C6 N4 O10"
_cell_length_a       6.950721000000001
_cell_length_b       7.113486077992492
_cell_length_c       8.6539786637408
_cell_angle_alpha    105.43300670560022
_cell_angle_beta     90.64948243757532
_cell_angle_gamma    112.19062950933201

_space_group_name_H-M_alt    "P 1"
_space_group_IT_number       1

loop_
  _space_group_symop_operation_xyz
  'x, y, z'

loop_
  _atom_site_type_symbol
  _atom_site_label
  _atom_site_symmetry_multiplicity
  _atom_site_fract_x
  _atom_site_fract_y
  _atom_site_fract_z
  _atom_site_occupancy
  Cu  Cu1       1.0  0.3082491295126404  0.6584604825524183  0.26387794318015967  1.0000
  Cu  Cu2       1.0  0.9656020837945358  0.5647345582383136  0.37158004399365047  1.0000
  C   C1        1.0  0.1927101095389253  0.020232475423985763  0.030438172879860836  1.0000
  C   C2        1.0  0.7357150240894045  0.523696020183309  0.9190658366163472  1.0000
  C   C3        1.0  0.24891524597044323  0.46970363223789  0.7505953778871611  1.0000
  C   C4        1.0  0.9061827443587417  0.9143031479963193  0.7007500819143727  1.0000
  C   C5        1.0  0.14900336763293384  0.3716199696671204  0.3480099039849547  1.0000
  C   C6        1.0  0.641651849461262  0.5932231406952364  0.24205607358201214  1.0000
  N   N1        1.0  0.7337502302486609  0.09858726907364879  0.10923109876421133  1.0000
  N   N2        1.0  0.7184940515228028  0.31079479908071406  0.45276316271327205  1.0000
  N   N3        1.0  0.6274961461855699  0.10796884558571308  0.01985579574898022  1.0000
  N   N4        1.0  0.6136290703759011  0.23275173912877545  0.5216298096290741  1.0000
  O   O1        1.0  0.2513900055303238  0.19305375846784356  0.9886953358370969  1.0000
  O   O2        1.0  0.7972250342967746  0.38935330224420217  0.8675869106185253  1.0000
  O   O3        1.0  0.2455409575313123  0.5454305797339682  0.8902212341487568  1.0000
  O   O4        1.0  0.8623363142657193  0.040838482538429144  0.7762202803956936  1.0000
  O   O5        1.0  0.6747592054879421  0.6702065949159488  0.958029694295129  1.0000
  O   O6        1.0  0.18338014387803137  0.9092426245637172  0.12904061088053487  1.0000
  O   O7        1.0  0.9699669387178375  0.7581389274218358  0.6558148058966737  1.0000
  O   O8        1.0  0.26124215057235595  0.41910312272482697  0.6048768762798966  1.0000
  O   O9        1.0  0.09082067445532806  0.17526538277080494  0.31871460720617295  1.0000
  O   O10       1.0  0.8235936614306223  0.7078338120455264  0.3211463282072269  1.0000
data_image74
_chemical_formula_structural       Cu2C6N4O10
_chemical_formula_sum              "Cu2 C6 N4 O10"
_cell_length_a       6.950721000000001
_cell_length_b       7.113486077992492
_cell_length_c       8.6539786637408
_cell_angle_alpha    105.43300670560022
_cell_angle_beta     90.64948243757532
_cell_angle_gamma    112.19062950933201

_space_group_name_H-M_alt    "P 1"
_space_group_IT_number       1

loop_
  _space_group_symop_operation_xyz
  'x, y, z'

loop_
  _atom_site_type_symbol
  _atom_site_label
  _atom_site_symmetry_multiplicity
  _atom_site_fract_x
  _atom_site_fract_y
  _atom_site_fract_z
  _atom_site_occupancy
  Cu  Cu1       1.0  0.378711706917396  0.6528156521841509  0.25603923503476  1.0000
  Cu  Cu2       1.0  0.002832839925943378  0.5684861514932532  0.3745624127874388  1.0000
  C   C1        1.0  0.15237118356248938  0.04825264589715439  0.10548714930957637  1.0000
  C   C2        1.0  0.7397764111514291  0.5613595179399415  0.8951689755240437  1.0000
  C   C3        1.0  0.2605167302621693  0.4960915277363993  0.7543902610754026  1.0000
  C   C4        1.0  0.8404736999673945  0.84978324450852  0.6649479172775639  1.0000
  C   C5        1.0  0.14306950533327056  0.39437749486978024  0.3539558434806322  1.0000
  C   C6        1.0  0.6769459096974112  0.7509407829913138  0.2966626398339397  1.0000
  N   N1        1.0  0.6355644174218482  0.15439243921086282  0.08910454791508893  1.0000
  N   N2        1.0  0.721143025178955  0.2412009794828709  0.4485534876188614  1.0000
  N   N3        1.0  0.5605114756201196  0.9884905420360895  0.07307097959868414  1.0000
  N   N4        1.0  0.6021248181854018  0.28389456058346907  0.5106850525841954  1.0000
  O   O1        1.0  0.28402296707012903  0.2247403012956546  0.07631284083419465  1.0000
  O   O2        1.0  0.8321817370780437  0.4442993825813939  0.8752580870449924  1.0000
  O   O3        1.0  0.29531746883380344  0.3844372390499502  0.8135007347963514  1.0000
  O   O4        1.0  0.6796874362213358  0.8563864772536984  0.6346837060122513  1.0000
  O   O5        1.0  0.651419782537694  0.6663562251688415  0.9494950198937111  1.0000
  O   O6        1.0  0.09697661680578992  0.8416683919035556  0.07664630462375377  1.0000
  O   O7        1.0  0.017340085201490885  0.8647554160324071  0.7030032934793335  1.0000
  O   O8        1.0  0.19905993756185053  0.60507630462679  0.6980011956881786  1.0000
  O   O9        1.0  0.12918306334887503  0.23113096378757658  0.36878153340479314  1.0000
  O   O10       1.0  0.7490436420722631  0.6173941650152941  0.26420917972990576  1.0000
data_image75
_chemical_formula_structural       Cu2C6N4O10
_chemical_formula_sum              "Cu2 C6 N4 O10"
_cell_length_a       6.950721000000001
_cell_length_b       7.113486077992492
_cell_length_c       8.6539786637408
_cell_angle_alpha    105.43300670560022
_cell_angle_beta     90.64948243757532
_cell_angle_gamma    112.19062950933201

_space_group_name_H-M_alt    "P 1"
_space_group_IT_number       1

loop_
  _space_group_symop_operation_xyz
  'x, y, z'

loop_
  _atom_site_type_symbol
  _atom_site_label
  _atom_site_symmetry_multiplicity
  _atom_site_fract_x
  _atom_site_fract_y
  _atom_site_fract_z
  _atom_site_occupancy
  Cu  Cu1       1.0  0.30019636960671026  0.6011850151063072  0.22038234452375755  1.0000
  Cu  Cu2       1.0  0.02009960598697734  0.5101155704712217  0.37963819631916396  1.0000
  C   C1        1.0  0.1970031080863714  0.03656645661793201  0.10749949610079801  1.0000
  C   C2        1.0  0.7653626364080133  0.5621917014194073  0.9116313440381317  1.0000
  C   C3        1.0  0.35677083225554873  0.5765947403250931  0.75908889225156  1.0000
  C   C4        1.0  0.76943249085184  0.8790395558645563  0.6554533992648147  1.0000
  C   C5        1.0  0.2529249720913978  0.42529680917711354  0.38296131237948666  1.0000
  C   C6        1.0  0.6325794135367643  0.7068813853476982  0.29262134547888696  1.0000
  N   N1        1.0  0.5127246860567324  0.013791537966969213  0.9978418590123964  1.0000
  N   N2        1.0  0.5944629013442573  0.16715338113937328  0.40996054616811617  1.0000
  N   N3        1.0  0.6179683595029362  0.108717086231376  0.11601143223764421  1.0000
  N   N4        1.0  0.6478302572288728  0.3062911624558904  0.5275245705037501  1.0000
  O   O1        1.0  0.1933405991232894  0.1879565221740429  0.05981858252036054  1.0000
  O   O2        1.0  0.8112930636015314  0.4140857076643891  0.8755162622324563  1.0000
  O   O3        1.0  0.2733447055256677  0.4246397230454475  0.7899972425702758  1.0000
  O   O4        1.0  0.668454606136728  0.8756512029961654  0.5459652733564306  1.0000
  O   O5        1.0  0.6808653548631101  0.6655114120432766  0.992810228151453  1.0000
  O   O6        1.0  0.16102059447535294  0.8794354611683521  0.15103245041400126  1.0000
  O   O7        1.0  0.9072533301384926  0.8909533079320455  0.7529633255212997  1.0000
  O   O8        1.0  0.3659292491121013  0.738582899745053  0.7395326637131441  1.0000
  O   O9        1.0  0.30857825080310053  0.29996064833089287  0.418269060599113  1.0000
  O   O10       1.0  0.8179517473897202  0.7916955460860494  0.2867790711594313  1.0000
data_image76
_chemical_formula_structural       Cu2C6N4O10
_chemical_formula_sum              "Cu2 C6 N4 O10"
_cell_length_a       6.950721000000001
_cell_length_b       7.113486077992492
_cell_length_c       8.6539786637408
_cell_angle_alpha    105.43300670560022
_cell_angle_beta     90.64948243757532
_cell_angle_gamma    112.19062950933201

_space_group_name_H-M_alt    "P 1"
_space_group_IT_number       1

loop_
  _space_group_symop_operation_xyz
  'x, y, z'

loop_
  _atom_site_type_symbol
  _atom_site_label
  _atom_site_symmetry_multiplicity
  _atom_site_fract_x
  _atom_site_fract_y
  _atom_site_fract_z
  _atom_site_occupancy
  Cu  Cu1       1.0  0.25902490204480744  0.6298151876270144  0.2588991550639279  1.0000
  Cu  Cu2       1.0  0.027218581118476255  0.4684985654591458  0.3811491587609405  1.0000
  C   C1        1.0  0.1996588978575947  0.9937209717607818  0.03621895978286038  1.0000
  C   C2        1.0  0.8395159213296687  0.5352995324510526  0.9821210423203356  1.0000
  C   C3        1.0  0.20844392360216024  0.4739692670129605  0.7683119163219758  1.0000
  C   C4        1.0  0.7965211236412985  0.970405038232556  0.6563759615596988  1.0000
  C   C5        1.0  0.25042195551799895  0.4136145047650225  0.3305981452119408  1.0000
  C   C6        1.0  0.5158831674245562  0.8105769700960821  0.2776991020970647  1.0000
  N   N1        1.0  0.713929217747702  0.9522079845609591  0.9844348905706913  1.0000
  N   N2        1.0  0.7025277440722761  0.34854809706046863  0.4648087605386404  1.0000
  N   N3        1.0  0.6463275153545343  0.06962295538812531  0.03554001329771195  1.0000
  N   N4        1.0  0.5826236257384539  0.17151603798263793  0.3939768199727979  1.0000
  O   O1        1.0  0.0867244665724005  0.07720444617927869  0.03157492128661232  1.0000
  O   O2        1.0  0.9844950863943731  0.5285375695448828  0.051609453507767356  1.0000
  O   O3        1.0  0.18490530164236635  0.3033031431218358  0.7895692481612904  1.0000
  O   O4        1.0  0.7381370411106312  0.10042213774981201  0.6398537662066816  1.0000
  O   O5        1.0  0.7003197993374859  0.5637049143053476  0.9246564351021767  1.0000
  O   O6        1.0  0.3345220234175338  0.958956286437706  0.07991187396054666  1.0000
  O   O7        1.0  0.8708437752332931  0.8464830533432652  0.6824593856593408  1.0000
  O   O8        1.0  0.2576255630272832  0.6516016093677766  0.7576417061453533  1.0000
  O   O9        1.0  0.337995349362936  0.33324309863961366  0.39287136718209814  1.0000
  O   O10       1.0  0.7171562935949951  0.8940711808097594  0.2999024479916119  1.0000
data_image77
_chemical_formula_structural       Cu2C6N4O10
_chemical_formula_sum              "Cu2 C6 N4 O10"
_cell_length_a       6.950721000000001
_cell_length_b       7.113486077992492
_cell_length_c       8.6539786637408
_cell_angle_alpha    105.43300670560022
_cell_angle_beta     90.64948243757532
_cell_angle_gamma    112.19062950933201

_space_group_name_H-M_alt    "P 1"
_space_group_IT_number       1

loop_
  _space_group_symop_operation_xyz
  'x, y, z'

loop_
  _atom_site_type_symbol
  _atom_site_label
  _atom_site_symmetry_multiplicity
  _atom_site_fract_x
  _atom_site_fract_y
  _atom_site_fract_z
  _atom_site_occupancy
  Cu  Cu1       1.0  0.3247204497233749  0.7075674674295213  0.24372362026195582  1.0000
  Cu  Cu2       1.0  0.9909257775236007  0.5301219950045761  0.38655464448600896  1.0000
  C   C1        1.0  0.19782573011966018  0.008317483379532309  0.06595056438918778  1.0000
  C   C2        1.0  0.8214921060264498  0.5128487439358564  0.9876520623662809  1.0000
  C   C3        1.0  0.2713098654947483  0.4238232995912319  0.7839575914769593  1.0000
  C   C4        1.0  0.7607775781323486  0.9128149883928327  0.6315148508320592  1.0000
  C   C5        1.0  0.1524988795016884  0.3682117208888469  0.3875536256329317  1.0000
  C   C6        1.0  0.5990836106767792  0.8490173933814138  0.3002742196068982  1.0000
  N   N1        1.0  0.6443017223500627  0.9009894584261599  0.9289673917736185  1.0000
  N   N2        1.0  0.7545366068458969  0.3141973183825586  0.42145038138990293  1.0000
  N   N3        1.0  0.6164220256373137  0.008281525136725571  0.036784364445021867  1.0000
  N   N4        1.0  0.6102291667226634  0.2049600644563916  0.4595577483888378  1.0000
  O   O1        1.0  0.16206731857140177  0.16676778905893896  0.11640653563338965  1.0000
  O   O2        1.0  0.911160884296038  0.6262027921174795  0.1101153858701458  1.0000
  O   O3        1.0  0.3632014419033915  0.32019734536365596  0.7940374617751511  1.0000
  O   O4        1.0  0.8069611866914819  0.06567032474493173  0.7261611480616028  1.0000
  O   O5        1.0  0.7230432145873802  0.4032050546210897  0.8601688689617413  1.0000
  O   O6        1.0  0.22007291014133795  0.8496253550588325  0.036329529998520904  1.0000
  O   O7        1.0  0.7119175197217621  0.7353710744985644  0.5428783725913882  1.0000
  O   O8        1.0  0.1971769146577865  0.5124762946695343  0.7207774854721507  1.0000
  O   O9        1.0  0.25309748110503255  0.3220045911692756  0.48618422869203537  1.0000
  O   O10       1.0  0.7692801701994183  0.890118491776288  0.24048777902428048  1.0000
data_image78
_chemical_formula_structural       Cu2C6N4O10
_chemical_formula_sum              "Cu2 C6 N4 O10"
_cell_length_a       6.950721000000001
_cell_length_b       7.113486077992492
_cell_length_c       8.6539786637408
_cell_angle_alpha    105.43300670560022
_cell_angle_beta     90.64948243757532
_cell_angle_gamma    112.19062950933201

_space_group_name_H-M_alt    "P 1"
_space_group_IT_number       1

loop_
  _space_group_symop_operation_xyz
  'x, y, z'

loop_
  _atom_site_type_symbol
  _atom_site_label
  _atom_site_symmetry_multiplicity
  _atom_site_fract_x
  _atom_site_fract_y
  _atom_site_fract_z
  _atom_site_occupancy
  Cu  Cu1       1.0  0.32888369995225863  0.7251802851228536  0.27812895373545315  1.0000
  Cu  Cu2       1.0  0.0527036511318709  0.5546462079102816  0.39512378712947094  1.0000
  C   C1        1.0  0.1657687658566727  0.0357400439325406  0.06406274482617569  1.0000
  C   C2        1.0  0.7822867756009696  0.4461172736791097  0.9265259751002941  1.0000
  C   C3        1.0  0.3382705267770716  0.5370581785433153  0.8681048493281023  1.0000
  C   C4        1.0  0.7866867596533987  0.8302847505332862  0.5703946294811076  1.0000
  C   C5        1.0  0.1373281291039062  0.35167295743902116  0.45946217276290974  1.0000
  C   C6        1.0  0.5710444857679154  0.86863979310754  0.19210149105294377  1.0000
  N   N1        1.0  0.7432356071521939  0.9228384388272987  0.8729031161914368  1.0000
  N   N2        1.0  0.5305396570568388  0.24814040884898514  0.4438481432180534  1.0000
  N   N3        1.0  0.6169834220142044  0.9811972453537527  0.90339571771862  1.0000
  N   N4        1.0  0.6860346011630276  0.27464464934252186  0.5160021159685572  1.0000
  O   O1        1.0  0.19505169798652794  0.20400136050592077  0.05932020086235745  1.0000
  O   O2        1.0  0.7131449978087323  0.4688417993889824  0.052442710383099334  1.0000
  O   O3        1.0  0.4379423030087369  0.5224635892783334  0.9689295219699943  1.0000
  O   O4        1.0  0.9597897225439986  0.9253790375878392  0.6456237038929666  1.0000
  O   O5        1.0  0.8311212854364401  0.3671931722262103  0.8076651858420283  1.0000
  O   O6        1.0  0.12616320992132365  0.8767170323063262  0.09229791333175563  1.0000
  O   O7        1.0  0.6047289293849877  0.725373722060308  0.5716796033862526  1.0000
  O   O8        1.0  0.23187061864574018  0.5777546128960462  0.7878034481014464  1.0000
  O   O9        1.0  0.06981025334158945  0.16295458060784518  0.44653473132707183  1.0000
  O   O10       1.0  0.7473897067981972  0.8979694915100016  0.18775494642913393  1.0000
data_image79
_chemical_formula_structural       Cu2C6N4O10
_chemical_formula_sum              "Cu2 C6 N4 O10"
_cell_length_a       6.950721000000001
_cell_length_b       7.113486077992492
_cell_length_c       8.6539786637408
_cell_angle_alpha    105.43300670560022
_cell_angle_beta     90.64948243757532
_cell_angle_gamma    112.19062950933201

_space_group_name_H-M_alt    "P 1"
_space_group_IT_number       1

loop_
  _space_group_symop_operation_xyz
  'x, y, z'

loop_
  _atom_site_type_symbol
  _atom_site_label
  _atom_site_symmetry_multiplicity
  _atom_site_fract_x
  _atom_site_fract_y
  _atom_site_fract_z
  _atom_site_occupancy
  Cu  Cu1       1.0  0.4405981321987773  0.8134683965338319  0.3892830102386525  1.0000
  Cu  Cu2       1.0  0.07245299468160729  0.5924846552024063  0.3833827539992279  1.0000
  C   C1        1.0  0.12248065946417934  0.09133082040774232  0.05648607953394569  1.0000
  C   C2        1.0  0.81886631833816  0.4391929500805152  0.9903938611018809  1.0000
  C   C3        1.0  0.2807566295427096  0.5511555140826443  0.7983863364934887  1.0000
  C   C4        1.0  0.734050830982052  0.6172560770170046  0.49316515914865383  1.0000
  C   C5        1.0  0.09274969785487819  0.3192009325871942  0.3612776651566192  1.0000
  C   C6        1.0  0.5813303656641131  0.844913985197799  0.20812326424918196  1.0000
  N   N1        1.0  0.712650896177436  0.9314337235278715  0.8503199135796223  1.0000
  N   N2        1.0  0.4376540153067132  0.1830753789133457  0.45140551406803625  1.0000
  N   N3        1.0  0.5466947594646057  0.842828450491843  0.7890327887042613  1.0000
  N   N4        1.0  0.5817559018674457  0.19544468465671327  0.5263192858865673  1.0000
  O   O1        1.0  0.22041301899084226  0.27473269433388503  0.06860708860166831  1.0000
  O   O2        1.0  0.8810593103548792  0.44380559079434456  0.11545563398081016  1.0000
  O   O3        1.0  0.3333388484610705  0.39775695204885797  0.7705235270705837  1.0000
  O   O4        1.0  0.8814503707418128  0.6077120954174628  0.5891478402777428  1.0000
  O   O5        1.0  0.7472750959049979  0.4630313878524104  0.8714851301251338  1.0000
  O   O6        1.0  0.033844049642941874  0.9117539061874905  0.045027750314038384  1.0000
  O   O7        1.0  0.5801891524592954  0.6586248833624946  0.45080768320787246  1.0000
  O   O8        1.0  0.23462252518278953  0.6900622414435209  0.8502779476888247  1.0000
  O   O9        1.0  0.09868984605466065  0.24999570343516242  0.4687157585119872  1.0000
  O   O10       1.0  0.7551797884431036  0.9206724643873013  0.22488494185944877  1.0000
data_image80
_chemical_formula_structural       Cu2C6N4O10
_chemical_formula_sum              "Cu2 C6 N4 O10"
_cell_length_a       6.950721000000001
_cell_length_b       7.113486077992492
_cell_length_c       8.6539786637408
_cell_angle_alpha    105.43300670560022
_cell_angle_beta     90.64948243757532
_cell_angle_gamma    112.19062950933201

_space_group_name_H-M_alt    "P 1"
_space_group_IT_number       1

loop_
  _space_group_symop_operation_xyz
  'x, y, z'

loop_
  _atom_site_type_symbol
  _atom_site_label
  _atom_site_symmetry_multiplicity
  _atom_site_fract_x
  _atom_site_fract_y
  _atom_site_fract_z
  _atom_site_occupancy
  Cu  Cu1       1.0  0.46784396225577285  0.8115621172568551  0.4494247293731992  1.0000
  Cu  Cu2       1.0  0.013520931477736774  0.5615838473528172  0.4005239568786684  1.0000
  C   C1        1.0  0.18697705895736935  0.10672955610427426  0.030183802603176435  1.0000
  C   C2        1.0  0.740842731522843  0.45634112284862405  0.9308344751615518  1.0000
  C   C3        1.0  0.12160288097758955  0.44167111537664216  0.8281977912854639  1.0000
  C   C4        1.0  0.7354898561601382  0.63911563805427  0.48362988168443244  1.0000
  C   C5        1.0  0.15936570664741243  0.4116117640327447  0.4595350506187084  1.0000
  C   C6        1.0  0.6592420347658523  0.924430249095487  0.31213263871040076  1.0000
  N   N1        1.0  0.6625956669303856  0.9070364358551127  0.7502068261468069  1.0000
  N   N2        1.0  0.7346794567142793  0.29185590318537935  0.5856122289306624  1.0000
  N   N3        1.0  0.5240175337166608  0.7984175527032755  0.6642633901411703  1.0000
  N   N4        1.0  0.5602054213534264  0.25298348447110763  0.5900621584434976  1.0000
  O   O1        1.0  0.3358994120480744  0.27148894872199403  0.07910339433379154  1.0000
  O   O2        1.0  0.8295472565632648  0.3320193047411044  0.964156330860276  1.0000
  O   O3        1.0  0.25349506840075087  0.3770381922026047  0.8028726254832368  1.0000
  O   O4        1.0  0.9142027871113857  0.7334256914305013  0.5562245970020426  1.0000
  O   O5        1.0  0.6622752372076244  0.5872389575827497  0.9166571253555225  1.0000
  O   O6        1.0  0.05874341518070982  0.9280528868751348  0.9596857948166959  1.0000
  O   O7        1.0  0.6155165649376423  0.5251484886373383  0.37884857463237  1.0000
  O   O8        1.0  0.03810379353519701  0.5539438103092387  0.7830730705087088  1.0000
  O   O9        1.0  0.2121145169644499  0.3002403281627706  0.37277314132948874  1.0000
  O   O10       1.0  0.8133171880247978  0.9670993861071882  0.2548029651634718  1.0000
data_image81
_chemical_formula_structural       Cu2C6N4O10
_chemical_formula_sum              "Cu2 C6 N4 O10"
_cell_length_a       6.950721000000001
_cell_length_b       7.113486077992492
_cell_length_c       8.6539786637408
_cell_angle_alpha    105.43300670560022
_cell_angle_beta     90.64948243757532
_cell_angle_gamma    112.19062950933201

_space_group_name_H-M_alt    "P 1"
_space_group_IT_number       1

loop_
  _space_group_symop_operation_xyz
  'x, y, z'

loop_
  _atom_site_type_symbol
  _atom_site_label
  _atom_site_symmetry_multiplicity
  _atom_site_fract_x
  _atom_site_fract_y
  _atom_site_fract_z
  _atom_site_occupancy
  Cu  Cu1       1.0  0.3904111580415819  0.7019960975890964  0.3920473513834952  1.0000
  Cu  Cu2       1.0  0.08205808216632182  0.6634060853561028  0.4220903152370903  1.0000
  C   C1        1.0  0.19035469044745262  0.12365531101493676  0.06572986982970686  1.0000
  C   C2        1.0  0.6676760717141046  0.3900532584360905  0.9975862651446791  1.0000
  C   C3        1.0  0.253038543233394  0.5073781822583854  0.839131483143926  1.0000
  C   C4        1.0  0.8032073580027834  0.6784835492576666  0.360778152817718  1.0000
  C   C5        1.0  0.20277314348353626  0.40260773655371207  0.3884828571986076  1.0000
  C   C6        1.0  0.6513204449717728  0.8773382638601591  0.30268907843352344  1.0000
  N   N1        1.0  0.576972119007858  0.769979162687306  0.7138012835512455  1.0000
  N   N2        1.0  0.7018679999534867  0.26144261942067537  0.5799508322636795  1.0000
  N   N3        1.0  0.44892743888029696  0.822801229130103  0.7329443176920085  1.0000
  N   N4        1.0  0.6512827872888992  0.39029825682796604  0.6097263709915006  1.0000
  O   O1        1.0  0.32806977091943673  0.12316397221057929  0.13358911445465482  1.0000
  O   O2        1.0  0.6870535971623739  0.2203367910856111  0.926375316541894  1.0000
  O   O3        1.0  0.2814733771161591  0.3398609718084329  0.7823556005765236  1.0000
  O   O4        1.0  0.9200062532287228  0.8738839912592542  0.4496875290210127  1.0000
  O   O5        1.0  0.6885405726162429  0.5645481522806879  0.050819104159713024  1.0000
  O   O6        1.0  0.05753902826908253  0.07433909188651411  0.9742342506885803  1.0000
  O   O7        1.0  0.6615776314303989  0.5178113757838423  0.3000794098515951  1.0000
  O   O8        1.0  0.20565100137131337  0.6289578260099886  0.9312143769103178  1.0000
  O   O9        1.0  0.2027939133332278  0.2965605800441373  0.4793107290055219  1.0000
  O   O10       1.0  0.6990711437150542  0.9730740405425793  0.21301322158977778  1.0000
data_image82
_chemical_formula_structural       Cu2C6N4O10
_chemical_formula_sum              "Cu2 C6 N4 O10"
_cell_length_a       6.950721000000001
_cell_length_b       7.113486077992492
_cell_length_c       8.6539786637408
_cell_angle_alpha    105.43300670560022
_cell_angle_beta     90.64948243757532
_cell_angle_gamma    112.19062950933201

_space_group_name_H-M_alt    "P 1"
_space_group_IT_number       1

loop_
  _space_group_symop_operation_xyz
  'x, y, z'

loop_
  _atom_site_type_symbol
  _atom_site_label
  _atom_site_symmetry_multiplicity
  _atom_site_fract_x
  _atom_site_fract_y
  _atom_site_fract_z
  _atom_site_occupancy
  Cu  Cu1       1.0  0.39261496152513353  0.5732941833823884  0.21748118761604324  1.0000
  Cu  Cu2       1.0  0.09419363278192217  0.6940959558182618  0.4137396746657822  1.0000
  C   C1        1.0  0.16994960328890624  0.17240927953736884  0.22803684511705336  1.0000
  C   C2        1.0  0.7272655409252895  0.4019402294231367  0.008416558221142845  1.0000
  C   C3        1.0  0.26300523396348935  0.4996597887752041  0.8725762639950861  1.0000
  C   C4        1.0  0.8033835293790182  0.6441592904956748  0.37367115650819516  1.0000
  C   C5        1.0  0.1299516622668144  0.5401422792370949  0.5981992243470539  1.0000
  C   C6        1.0  0.5646317264577811  0.8639624248611807  0.19471790274625053  1.0000
  N   N1        1.0  0.5641685128942306  0.8462365278627966  0.7050244118123977  1.0000
  N   N2        1.0  0.6972393609634194  0.20231847790268365  0.5972455153286577  1.0000
  N   N3        1.0  0.47811284697899764  0.9455986256577895  0.7708974628816986  1.0000
  N   N4        1.0  0.8082820064298941  0.3291647815437777  0.7040905178720777  1.0000
  O   O1        1.0  0.20449552862041465  0.02949131468821853  0.23425853296187915  1.0000
  O   O2        1.0  0.7269406918607977  0.2609402417075217  0.05283253339063099  1.0000
  O   O3        1.0  0.32917353585567816  0.4055200464893318  0.7710553998344711  1.0000
  O   O4        1.0  0.8589501188221421  0.8487402951258629  0.399767753672705  1.0000
  O   O5        1.0  0.7189987213541302  0.5359697544409681  0.9664216384592359  1.0000
  O   O6        1.0  0.14581945325633894  0.32614487716365304  0.21105848684258866  1.0000
  O   O7        1.0  0.6116407497144789  0.5396643557301137  0.3404128721652875  1.0000
  O   O8        1.0  0.23640579427171182  0.6144640100500083  0.010442725171908585  1.0000
  O   O9        1.0  0.13952599724406903  0.36793104818924127  0.5350840836110569  1.0000
  O   O10       1.0  0.6402442065210693  0.898521844408887  0.08402597849865012  1.0000
data_image83
_chemical_formula_structural       Cu2C6N4O10
_chemical_formula_sum              "Cu2 C6 N4 O10"
_cell_length_a       6.950721000000001
_cell_length_b       7.113486077992492
_cell_length_c       8.6539786637408
_cell_angle_alpha    105.43300670560022
_cell_angle_beta     90.64948243757532
_cell_angle_gamma    112.19062950933201

_space_group_name_H-M_alt    "P 1"
_space_group_IT_number       1

loop_
  _space_group_symop_operation_xyz
  'x, y, z'

loop_
  _atom_site_type_symbol
  _atom_site_label
  _atom_site_symmetry_multiplicity
  _atom_site_fract_x
  _atom_site_fract_y
  _atom_site_fract_z
  _atom_site_occupancy
  Cu  Cu1       1.0  0.47904882216581557  0.5922614941326465  0.21309463263193545  1.0000
  Cu  Cu2       1.0  0.09756031346279795  0.7084944250871914  0.4072336462145719  1.0000
  C   C1        1.0  0.14635952990814605  0.1137415392863248  0.1815961305246825  1.0000
  C   C2        1.0  0.8610298563359017  0.5833340673866907  0.009518209830036373  1.0000
  C   C3        1.0  0.2617191434586125  0.43888543217872633  0.8488724174041158  1.0000
  C   C4        1.0  0.7795453921494002  0.6417052962742842  0.46331603301249497  1.0000
  C   C5        1.0  0.17352396273245987  0.5224604530972268  0.4869352732582258  1.0000
  C   C6        1.0  0.5106219022260535  0.8711126353618198  0.20242371557041938  1.0000
  N   N1        1.0  0.3930292897098715  0.7803304525833591  0.8058057685450163  1.0000
  N   N2        1.0  0.6905807955612866  0.2721506370072757  0.6244981331095252  1.0000
  N   N3        1.0  0.3091091456075515  0.8904934444380028  0.8433575466091312  1.0000
  N   N4        1.0  0.6557017358928543  0.10586475862107347  0.5235866028014452  1.0000
  O   O1        1.0  0.054593927100625446  0.9518292621170192  0.2252194391259481  1.0000
  O   O2        1.0  0.8491668874254855  0.44882746911899574  0.07216404145411515  1.0000
  O   O3        1.0  0.4162708686914081  0.42144356133602057  0.84548612098876  1.0000
  O   O4        1.0  0.8084169507018246  0.7875103591101653  0.5888938143295489  1.0000
  O   O5        1.0  0.8787552995326975  0.7227311286123501  0.9506393224729964  1.0000
  O   O6        1.0  0.16787500521780882  0.2411527361664796  0.10119396684273863  1.0000
  O   O7        1.0  0.6296713101928832  0.4953415744690868  0.3731341929845131  1.0000
  O   O8        1.0  0.09333493381056097  0.4221614206141657  0.8223060508406117  1.0000
  O   O9        1.0  0.13276199726555632  0.3742201289035646  0.5319337696142601  1.0000
  O   O10       1.0  0.606821699490856  0.032228016483709654  0.1821310862194546  1.0000
data_image84
_chemical_formula_structural       Cu2C6N4O10
_chemical_formula_sum              "Cu2 C6 N4 O10"
_cell_length_a       6.950721000000001
_cell_length_b       7.113486077992492
_cell_length_c       8.6539786637408
_cell_angle_alpha    105.43300670560022
_cell_angle_beta     90.64948243757532
_cell_angle_gamma    112.19062950933201

_space_group_name_H-M_alt    "P 1"
_space_group_IT_number       1

loop_
  _space_group_symop_operation_xyz
  'x, y, z'

loop_
  _atom_site_type_symbol
  _atom_site_label
  _atom_site_symmetry_multiplicity
  _atom_site_fract_x
  _atom_site_fract_y
  _atom_site_fract_z
  _atom_site_occupancy
  Cu  Cu1       1.0  0.5432470453302216  0.6356818873160335  0.2467399779456226  1.0000
  Cu  Cu2       1.0  0.021531083084011384  0.6688553508268245  0.354722926695246  1.0000
  C   C1        1.0  0.13900031868925639  0.09498454185351046  0.17118984759554778  1.0000
  C   C2        1.0  0.8885275694807403  0.6283701124623118  0.03207200148518874  1.0000
  C   C3        1.0  0.19092392535299257  0.2755988787413499  0.8157800653888406  1.0000
  C   C4        1.0  0.7376554736712615  0.652891213691865  0.5331027318913354  1.0000
  C   C5        1.0  0.1320250903398493  0.49778954861982017  0.4278201386520036  1.0000
  C   C6        1.0  0.5265185184878926  0.820576102464137  0.1195408908581705  1.0000
  N   N1        1.0  0.48036438340445325  0.9682973248979154  0.8575499825832205  1.0000
  N   N2        1.0  0.7757893187681787  0.29105780049135843  0.6321289775176893  1.0000
  N   N3        1.0  0.34944345166644275  0.8525504989100177  0.7608393704493225  1.0000
  N   N4        1.0  0.5982495912388901  0.2422759824301841  0.6205030043171497  1.0000
  O   O1        1.0  0.1615387669929719  0.9974728946839747  0.23859088573512532  1.0000
  O   O2        1.0  0.8543355586281407  0.6141766909599604  0.15985534444461402  1.0000
  O   O3        1.0  0.3491994638350491  0.37666276459899595  0.781720698072641  1.0000
  O   O4        1.0  0.7769152984417036  0.7261192538844534  0.6773394913276233  1.0000
  O   O5        1.0  0.9345268439510184  0.6471134119369941  0.9156937230734153  1.0000
  O   O6        1.0  0.15139987085259557  0.2437918128068357  0.12056478491637423  1.0000
  O   O7        1.0  0.6310354653418241  0.5515524179572671  0.40191485272239613  1.0000
  O   O8        1.0  0.019210040926517735  0.20337891398540808  0.818126467253379  1.0000
  O   O9        1.0  0.21225786554987483  0.4062817847411876  0.4822692558408433  1.0000
  O   O10       1.0  0.5445306189032648  0.9966186614468089  0.17360674791427308  1.0000
data_image85
_chemical_formula_structural       Cu2C6N4O10
_chemical_formula_sum              "Cu2 C6 N4 O10"
_cell_length_a       6.950721000000001
_cell_length_b       7.113486077992492
_cell_length_c       8.6539786637408
_cell_angle_alpha    105.43300670560022
_cell_angle_beta     90.64948243757532
_cell_angle_gamma    112.19062950933201

_space_group_name_H-M_alt    "P 1"
_space_group_IT_number       1

loop_
  _space_group_symop_operation_xyz
  'x, y, z'

loop_
  _atom_site_type_symbol
  _atom_site_label
  _atom_site_symmetry_multiplicity
  _atom_site_fract_x
  _atom_site_fract_y
  _atom_site_fract_z
  _atom_site_occupancy
  Cu  Cu1       1.0  0.5334793249842418  0.6976405512288093  0.26274240406435734  1.0000
  Cu  Cu2       1.0  0.10366402001688717  0.737073714114693  0.37602559969972293  1.0000
  C   C1        1.0  0.2184356829453327  0.06983280117325874  0.13350633751369556  1.0000
  C   C2        1.0  0.8616161662138577  0.5087062700382963  0.05178190675700023  1.0000
  C   C3        1.0  0.10713822275460394  0.19944353830179984  0.8270276601829707  1.0000
  C   C4        1.0  0.6274950374335165  0.6948952207828947  0.6120210272446683  1.0000
  C   C5        1.0  0.22472871359269855  0.5834292143437378  0.467290911749  1.0000
  C   C6        1.0  0.6674186828859369  0.8628558730457543  0.13536294277082175  1.0000
  N   N1        1.0  0.39250911894730184  0.007109709054599038  0.6824118065890536  1.0000
  N   N2        1.0  0.7216568129886093  0.26179130191597677  0.547513990442282  1.0000
  N   N3        1.0  0.3552706217638067  0.8610419841752108  0.7272111550626275  1.0000
  N   N4        1.0  0.5489390590804373  0.26063540087968606  0.5473855495949803  1.0000
  O   O1        1.0  0.1691008250662273  0.8933048525567208  0.14701013996102308  1.0000
  O   O2        1.0  0.7467367036898187  0.45816335336979463  0.15470489099824825  1.0000
  O   O3        1.0  0.28484469671565793  0.34722498968598137  0.8639847401656178  1.0000
  O   O4        1.0  0.6758178218389891  0.7362562195544082  0.7538194952000914  1.0000
  O   O5        1.0  0.9117660147659599  0.5475804201909333  0.9275937721911193  1.0000
  O   O6        1.0  0.2533917016734085  0.2535721594587903  0.15292685320071908  1.0000
  O   O7        1.0  0.6117535679413136  0.6609302686235377  0.4725649490692321  1.0000
  O   O8        1.0  0.048809134894551284  0.02456255125289819  0.8354621579930344  1.0000
  O   O9        1.0  0.15762608471248354  0.3951155273596323  0.48959214809426693  1.0000
  O   O10       1.0  0.5747309318989366  0.9393973063592141  0.05252745558198672  1.0000
data_image86
_chemical_formula_structural       Cu2C6N4O10
_chemical_formula_sum              "Cu2 C6 N4 O10"
_cell_length_a       6.950721000000001
_cell_length_b       7.113486077992492
_cell_length_c       8.6539786637408
_cell_angle_alpha    105.43300670560022
_cell_angle_beta     90.64948243757532
_cell_angle_gamma    112.19062950933201

_space_group_name_H-M_alt    "P 1"
_space_group_IT_number       1

loop_
  _space_group_symop_operation_xyz
  'x, y, z'

loop_
  _atom_site_type_symbol
  _atom_site_label
  _atom_site_symmetry_multiplicity
  _atom_site_fract_x
  _atom_site_fract_y
  _atom_site_fract_z
  _atom_site_occupancy
  Cu  Cu1       1.0  0.49493914525620264  0.6673622301698866  0.29389328512079044  1.0000
  Cu  Cu2       1.0  0.187259926785734  0.7810864938329956  0.363420416263812  1.0000
  C   C1        1.0  0.2663355547743836  0.06996420721697016  0.16960130263767637  1.0000
  C   C2        1.0  0.814058286715391  0.4396920882044997  0.01078991354827119  1.0000
  C   C3        1.0  0.08968693625133563  0.19352058384385074  0.8226551160162844  1.0000
  C   C4        1.0  0.6489634700768369  0.7830910772299773  0.6504809829923647  1.0000
  C   C5        1.0  0.12654708487950186  0.5114914262606094  0.3903140484959868  1.0000
  C   C6        1.0  0.6668423238440024  0.9009437171753959  0.18612534625567126  1.0000
  N   N1        1.0  0.2213874684766764  0.8360651426399813  0.5992262177181383  1.0000
  N   N2        1.0  0.6757637634743636  0.35221285737300967  0.6300585821662009  1.0000
  N   N3        1.0  0.2936051559098219  0.9383369133415943  0.7225936920811408  1.0000
  N   N4        1.0  0.5485589855840642  0.22940575173829636  0.5467141092118424  1.0000
  O   O1        1.0  0.23735858375443264  0.8868166341815027  0.12388753784479345  1.0000
  O   O2        1.0  0.7243785642187601  0.397895365594378  0.11961494775587433  1.0000
  O   O3        1.0  0.2302569202190106  0.3675503687347781  0.8186648335126309  1.0000
  O   O4        1.0  0.5403176028009655  0.6873078170473961  0.7255804829086137  1.0000
  O   O5        1.0  0.9024489151670962  0.454776377735169  0.8936413062955343  1.0000
  O   O6        1.0  0.3151335839987532  0.25548542834233534  0.1447897119959003  1.0000
  O   O7        1.0  0.7436592218076625  0.8422105096202386  0.5528280991229217  1.0000
  O   O8        1.0  0.9686160209405841  0.039170761565361145  0.8501576736380805  1.0000
  O   O9        1.0  0.11933996957064404  0.3745941765541936  0.45947180930640924  1.0000
  O   O10       1.0  0.7932318805266189  0.9422123127085127  0.0930670124463284  1.0000
data_image87
_chemical_formula_structural       Cu2C6N4O10
_chemical_formula_sum              "Cu2 C6 N4 O10"
_cell_length_a       6.950721000000001
_cell_length_b       7.113486077992492
_cell_length_c       8.6539786637408
_cell_angle_alpha    105.43300670560022
_cell_angle_beta     90.64948243757532
_cell_angle_gamma    112.19062950933201

_space_group_name_H-M_alt    "P 1"
_space_group_IT_number       1

loop_
  _space_group_symop_operation_xyz
  'x, y, z'

loop_
  _atom_site_type_symbol
  _atom_site_label
  _atom_site_symmetry_multiplicity
  _atom_site_fract_x
  _atom_site_fract_y
  _atom_site_fract_z
  _atom_site_occupancy
  Cu  Cu1       1.0  0.49855177000719797  0.6046085022557293  0.3239022303680201  1.0000
  Cu  Cu2       1.0  0.21445794662327194  0.7356536332293682  0.31812917938729757  1.0000
  C   C1        1.0  0.33368268865278244  0.11688656350969495  0.21884663843415675  1.0000
  C   C2        1.0  0.7951388542262434  0.4628297597194413  0.9864180320619169  1.0000
  C   C3        1.0  0.10546448304189109  0.2419413532805983  0.8921157614686392  1.0000
  C   C4        1.0  0.53802903098835  0.7508555998389654  0.5530040108192571  1.0000
  C   C5        1.0  0.08017703531914017  0.5603191723149255  0.4444066127549318  1.0000
  C   C6        1.0  0.7637921107692538  0.7698086792089912  0.21075160996339798  1.0000
  N   N1        1.0  0.23300672096000086  0.017560155456531085  0.699248456460711  1.0000
  N   N2        1.0  0.7102910988915182  0.39220173159821314  0.5801273498437368  1.0000
  N   N3        1.0  0.32719347910336793  0.9401301423270607  0.7420671033527169  1.0000
  N   N4        1.0  0.640038049538554  0.33543618041967393  0.4506795912468765  1.0000
  O   O1        1.0  0.2580939671708494  0.9915002624679652  0.27980337123265464  1.0000
  O   O2        1.0  0.664891487605855  0.36192527902203  0.043437471804535166  1.0000
  O   O3        1.0  0.2639878408673524  0.3586564125094982  0.8665608221743438  1.0000
  O   O4        1.0  0.3875592059146669  0.6065369425961828  0.5825098259863912  1.0000
  O   O5        1.0  0.9113417000864673  0.5238391168121628  0.8959775056559762  1.0000
  O   O6        1.0  0.34602091776930405  0.24430754694751045  0.15021441124983692  1.0000
  O   O7        1.0  0.7316828426402553  0.8632718553616867  0.5930405494138604  1.0000
  O   O8        1.0  0.9168578501930679  0.15464351297982826  0.8759986808407783  1.0000
  O   O9        1.0  0.027316040062273568  0.38126925383832877  0.39207854602715003  1.0000
  O   O10       1.0  0.7873981114175234  0.8956829462030594  0.12692869274828844  1.0000
data_image88
_chemical_formula_structural       Cu2C6N4O10
_chemical_formula_sum              "Cu2 C6 N4 O10"
_cell_length_a       6.950721000000001
_cell_length_b       7.113486077992492
_cell_length_c       8.6539786637408
_cell_angle_alpha    105.43300670560022
_cell_angle_beta     90.64948243757532
_cell_angle_gamma    112.19062950933201

_space_group_name_H-M_alt    "P 1"
_space_group_IT_number       1

loop_
  _space_group_symop_operation_xyz
  'x, y, z'

loop_
  _atom_site_type_symbol
  _atom_site_label
  _atom_site_symmetry_multiplicity
  _atom_site_fract_x
  _atom_site_fract_y
  _atom_site_fract_z
  _atom_site_occupancy
  Cu  Cu1       1.0  0.5955206851586328  0.6360798836974876  0.30944979702835745  1.0000
  Cu  Cu2       1.0  0.12636636765984918  0.6899003846417713  0.2618895902265497  1.0000
  C   C1        1.0  0.21343867987693513  0.12561178238158677  0.2643380702773499  1.0000
  C   C2        1.0  0.8090891001007513  0.42365635939090684  0.9381826364391097  1.0000
  C   C3        1.0  0.24155158424625012  0.38455457142683014  0.9421423463529648  1.0000
  C   C4        1.0  0.5182516907720578  0.6920313907047844  0.6335611951305423  1.0000
  C   C5        1.0  0.14675986689771184  0.47350955189184196  0.3133345193804356  1.0000
  C   C6        1.0  0.6818993146674063  0.7602163764474207  0.16525902688910313  1.0000
  N   N1        1.0  0.323392086333946  0.9763763769211455  0.7803193477266389  1.0000
  N   N2        1.0  0.5323319828731581  0.2925767802284036  0.500265870986562  1.0000
  N   N3        1.0  0.24269504202479458  0.8471231404667566  0.8341326858953648  1.0000
  N   N4        1.0  0.6634957390962638  0.36437743574930836  0.4374621651694234  1.0000
  O   O1        1.0  0.15962717792819378  0.008031849810705927  0.3707872425002954  1.0000
  O   O2        1.0  0.8058229318252094  0.43598634326650365  0.07610275818122969  1.0000
  O   O3        1.0  0.36192610274235953  0.5645836768615657  0.963862153362018  1.0000
  O   O4        1.0  0.39630037898643383  0.5775618770618072  0.5045204646436837  1.0000
  O   O5        1.0  0.8656743252633593  0.5235780949476163  0.8386804394778662  1.0000
  O   O6        1.0  0.27301846453662604  0.1945328653637417  0.1599442401510267  1.0000
  O   O7        1.0  0.64413448336932  0.8484455194132539  0.7283589890972704  1.0000
  O   O8        1.0  0.09219476339490713  0.22702447744237197  0.9227016666737491  1.0000
  O   O9        1.0  0.011291257217557481  0.3257000923138498  0.3224723417978391  1.0000
  O   O10       1.0  0.7822453909500039  0.9481978085768905  0.16464720267642471  1.0000
data_image89
_chemical_formula_structural       Cu2C6N4O10
_chemical_formula_sum              "Cu2 C6 N4 O10"
_cell_length_a       6.950721000000001
_cell_length_b       7.113486077992492
_cell_length_c       8.6539786637408
_cell_angle_alpha    105.43300670560022
_cell_angle_beta     90.64948243757532
_cell_angle_gamma    112.19062950933201

_space_group_name_H-M_alt    "P 1"
_space_group_IT_number       1

loop_
  _space_group_symop_operation_xyz
  'x, y, z'

loop_
  _atom_site_type_symbol
  _atom_site_label
  _atom_site_symmetry_multiplicity
  _atom_site_fract_x
  _atom_site_fract_y
  _atom_site_fract_z
  _atom_site_occupancy
  Cu  Cu1       1.0  0.6314272851894562  0.7048869824629712  0.343303568294609  1.0000
  Cu  Cu2       1.0  0.09027904275269137  0.7098286393410256  0.23909421093827954  1.0000
  C   C1        1.0  0.24642632729142555  0.07170086582529867  0.3094036028874856  1.0000
  C   C2        1.0  0.7976571955314261  0.39559087923129654  0.9002581087266491  1.0000
  C   C3        1.0  0.2628062793960099  0.42951126433541686  0.9051780097950198  1.0000
  C   C4        1.0  0.5761711315808032  0.6757058984645108  0.6374668311711391  1.0000
  C   C5        1.0  0.06689730333771385  0.4949943061487194  0.31467450302441163  1.0000
  C   C6        1.0  0.6440540556585584  0.8589637074377898  0.21979480429861986  1.0000
  N   N1        1.0  0.1578979448923733  0.7815670211702588  0.7523685923902423  1.0000
  N   N2        1.0  0.6268413583027782  0.23364299079618434  0.4866564671769677  1.0000
  N   N3        1.0  0.1137899094696959  0.8860186849306501  0.8517218573745232  1.0000
  N   N4        1.0  0.7308424466652708  0.379205026547496  0.45917023152010794  1.0000
  O   O1        1.0  0.14288313970981673  0.9701432410278099  0.39534244897763915  1.0000
  O   O2        1.0  0.731966519951506  0.3675975570667611  0.03328609266243476  1.0000
  O   O3        1.0  0.41086655096243047  0.5654746362541594  0.9978372203754002  1.0000
  O   O4        1.0  0.4548689807353028  0.5684180129158223  0.5156352753160004  1.0000
  O   O5        1.0  0.8089237358172696  0.3692057591945308  0.7677234325589324  1.0000
  O   O6        1.0  0.3619528943625562  0.20030852150683431  0.24485760861492456  1.0000
  O   O7        1.0  0.7268793953367734  0.7986968655363642  0.7347751179934743  1.0000
  O   O8        1.0  0.1167317903658898  0.2718874001617153  0.8235437385624023  1.0000
  O   O9        1.0  0.026276347349124478  0.33232250083822634  0.3256485495264779  1.0000
  O   O10       1.0  0.7409193106211034  0.9804266272090842  0.1490133755174965  1.0000
data_image90
_chemical_formula_structural       Cu2C6N4O10
_chemical_formula_sum              "Cu2 C6 N4 O10"
_cell_length_a       6.950721000000001
_cell_length_b       7.113486077992492
_cell_length_c       8.6539786637408
_cell_angle_alpha    105.43300670560022
_cell_angle_beta     90.64948243757532
_cell_angle_gamma    112.19062950933201

_space_group_name_H-M_alt    "P 1"
_space_group_IT_number       1

loop_
  _space_group_symop_operation_xyz
  'x, y, z'

loop_
  _atom_site_type_symbol
  _atom_site_label
  _atom_site_symmetry_multiplicity
  _atom_site_fract_x
  _atom_site_fract_y
  _atom_site_fract_z
  _atom_site_occupancy
  Cu  Cu1       1.0  0.5565443663959408  0.6990531569426854  0.32477509631203594  1.0000
  Cu  Cu2       1.0  0.10868013011013321  0.7614379913250136  0.27187176484504466  1.0000
  C   C1        1.0  0.28636244487472023  0.08802874943597083  0.29630657400834126  1.0000
  C   C2        1.0  0.7194461513894644  0.3501226015389345  0.9194992318844473  1.0000
  C   C3        1.0  0.2743364694074864  0.3840008241864996  0.8853083691648825  1.0000
  C   C4        1.0  0.5732926026858186  0.6920550620949684  0.649391030400313  1.0000
  C   C5        1.0  0.08131360492345399  0.48064006876707344  0.2352923333310726  1.0000
  C   C6        1.0  0.6176711275087031  0.878882031897882  0.2013749901612776  1.0000
  N   N1        1.0  0.14397662848365533  0.8254394593911766  0.8228064720151967  1.0000
  N   N2        1.0  0.8114167552783236  0.21872255722333955  0.4720599400867641  1.0000
  N   N3        1.0  0.12145027055055038  0.7857895898091914  0.9438748113225945  1.0000
  N   N4        1.0  0.7790134458517085  0.36081926619336313  0.49325457652654686  1.0000
  O   O1        1.0  0.22775604888517065  0.079943096624431  0.4098380929764738  1.0000
  O   O2        1.0  0.7155103344255596  0.3177900887866436  0.052326152572889306  1.0000
  O   O3        1.0  0.3234197797503658  0.5099236608044548  0.011240329268190054  1.0000
  O   O4        1.0  0.48735779939797613  0.5762212422532929  0.5123090165965074  1.0000
  O   O5        1.0  0.7838398786004993  0.3763958556307818  0.8009965986353432  1.0000
  O   O6        1.0  0.37636725462168347  0.1734875990611393  0.20520814267115894  1.0000
  O   O7        1.0  0.6535374244296175  0.8234446470945154  0.7691518902800774  1.0000
  O   O8        1.0  0.25398763715844586  0.2431553558172761  0.752322829353395  1.0000
  O   O9        1.0  0.12746801461041712  0.35888642656248104  0.26575967389842553  1.0000
  O   O10       1.0  0.6335929015978891  0.903634966770839  0.06647195784823373  1.0000
data_image91
_chemical_formula_structural       Cu2C6N4O10
_chemical_formula_sum              "Cu2 C6 N4 O10"
_cell_length_a       6.950721000000001
_cell_length_b       7.113486077992492
_cell_length_c       8.6539786637408
_cell_angle_alpha    105.43300670560022
_cell_angle_beta     90.64948243757532
_cell_angle_gamma    112.19062950933201

_space_group_name_H-M_alt    "P 1"
_space_group_IT_number       1

loop_
  _space_group_symop_operation_xyz
  'x, y, z'

loop_
  _atom_site_type_symbol
  _atom_site_label
  _atom_site_symmetry_multiplicity
  _atom_site_fract_x
  _atom_site_fract_y
  _atom_site_fract_z
  _atom_site_occupancy
  Cu  Cu1       1.0  0.43506892985759826  0.7069426299785502  0.33041912207566343  1.0000
  Cu  Cu2       1.0  0.1535757546079782  0.7290213694253256  0.35246989667856293  1.0000
  C   C1        1.0  0.37756588172695543  0.14757812707488038  0.31532128417640126  1.0000
  C   C2        1.0  0.7970939646778988  0.39766614482702645  0.8782787860147544  1.0000
  C   C3        1.0  0.24198284390369773  0.3128336162440706  0.7892010679751653  1.0000
  C   C4        1.0  0.5690943976553825  0.6447420761669411  0.5839569111666533  1.0000
  C   C5        1.0  0.15347439711536764  0.45346514228170787  0.31614364609772067  1.0000
  C   C6        1.0  0.537410803379474  0.846857684191755  0.1583796111865073  1.0000
  N   N1        1.0  0.2580992207979668  0.906525829994109  0.9437207075795899  1.0000
  N   N2        1.0  0.8562323886104434  0.2903434739710633  0.4957468797481459  1.0000
  N   N3        1.0  0.12108559118948606  0.8503758703068872  0.011553941520659139  1.0000
  N   N4        1.0  0.8646893053204981  0.46042406885137144  0.5201179834848009  1.0000
  O   O1        1.0  0.29238108862907664  0.06096704838709344  0.4171552528590414  1.0000
  O   O2        1.0  0.9271029920543855  0.36761193086295396  0.9487907625705623  1.0000
  O   O3        1.0  0.3175203477943496  0.49930123565240914  0.8559456634101656  1.0000
  O   O4        1.0  0.5260701454033009  0.5350768449478269  0.44484305587997336  1.0000
  O   O5        1.0  0.6580475585679217  0.4436583915671155  0.845649996102519  1.0000
  O   O6        1.0  0.4586388780262895  0.2154724444082341  0.20910183694992046  1.0000
  O   O7        1.0  0.5586404106961139  0.7677046740038314  0.6967735936707145  1.0000
  O   O8        1.0  0.17984221660387736  0.14314259569186305  0.698120272641952  1.0000
  O   O9        1.0  0.05547043987782292  0.2752351057443839  0.22785715958365216  1.0000
  O   O10       1.0  0.6040213609416059  0.921498353335406  0.05641444311904673  1.0000
data_image92
_chemical_formula_structural       Cu2C6N4O10
_chemical_formula_sum              "Cu2 C6 N4 O10"
_cell_length_a       6.950721000000001
_cell_length_b       7.113486077992492
_cell_length_c       8.6539786637408
_cell_angle_alpha    105.43300670560022
_cell_angle_beta     90.64948243757532
_cell_angle_gamma    112.19062950933201

_space_group_name_H-M_alt    "P 1"
_space_group_IT_number       1

loop_
  _space_group_symop_operation_xyz
  'x, y, z'

loop_
  _atom_site_type_symbol
  _atom_site_label
  _atom_site_symmetry_multiplicity
  _atom_site_fract_x
  _atom_site_fract_y
  _atom_site_fract_z
  _atom_site_occupancy
  Cu  Cu1       1.0  0.4784183552079748  0.7163784461982458  0.3215829046660132  1.0000
  Cu  Cu2       1.0  0.06872569208999818  0.6865619667203204  0.3953724776751744  1.0000
  C   C1        1.0  0.2773983259861396  0.0762421524581729  0.24801505577494742  1.0000
  C   C2        1.0  0.8031543139235303  0.38601714898794537  0.9457719631181752  1.0000
  C   C3        1.0  0.18102658152334158  0.19539372541914957  0.7435233939250832  1.0000
  C   C4        1.0  0.6174509822023262  0.8203991929490098  0.609944875787816  1.0000
  C   C5        1.0  0.15985490065857522  0.50273661600176  0.23029168356378923  1.0000
  C   C6        1.0  0.6313401530452232  0.7724840982823059  0.15722758299749262  1.0000
  N   N1        1.0  0.2683193764220909  0.924366816116301  0.8986631317973618  1.0000
  N   N2        1.0  0.8249999781055442  0.4268617451157568  0.49062543966708755  1.0000
  N   N3        1.0  0.14656091104298202  0.8510928047968936  0.96609510596709  1.0000
  N   N4        1.0  0.9608647715677776  0.43394852510637616  0.5771446010398608  1.0000
  O   O1        1.0  0.149619822354255  0.01355776014220944  0.3212613566172682  1.0000
  O   O2        1.0  0.9155525377136227  0.30669355184492386  0.9378867070078054  1.0000
  O   O3        1.0  0.289710603970183  0.38724044455037543  0.7762642232759265  1.0000
  O   O4        1.0  0.5308013520542632  0.6363720986787187  0.5323219080127695  1.0000
  O   O5        1.0  0.6973997317188556  0.4849884648947722  0.9520250190922711  1.0000
  O   O6        1.0  0.4544594380943915  0.1625659797513952  0.2291275822711245  1.0000
  O   O7        1.0  0.6998960111981096  0.0037519504513587876  0.6891135363773566  1.0000
  O   O8        1.0  0.03579762557535817  0.04316862569734847  0.6886238809556329  1.0000
  O   O9        1.0  0.15805505085149987  0.33162978686334166  0.14805313253593297  1.0000
  O   O10       1.0  0.7280944186495749  0.9130215144763575  0.10588786701826579  1.0000
data_image93
_chemical_formula_structural       Cu2C6N4O10
_chemical_formula_sum              "Cu2 C6 N4 O10"
_cell_length_a       6.950721000000001
_cell_length_b       7.113486077992492
_cell_length_c       8.6539786637408
_cell_angle_alpha    105.43300670560022
_cell_angle_beta     90.64948243757532
_cell_angle_gamma    112.19062950933201

_space_group_name_H-M_alt    "P 1"
_space_group_IT_number       1

loop_
  _space_group_symop_operation_xyz
  'x, y, z'

loop_
  _atom_site_type_symbol
  _atom_site_label
  _atom_site_symmetry_multiplicity
  _atom_site_fract_x
  _atom_site_fract_y
  _atom_site_fract_z
  _atom_site_occupancy
  Cu  Cu1       1.0  0.4592900883194915  0.7226617207896744  0.38011569388441757  1.0000
  Cu  Cu2       1.0  0.10859793958227748  0.7006301100495804  0.3745348359534541  1.0000
  C   C1        1.0  0.31074816884042256  0.9834118756490057  0.2630072005200741  1.0000
  C   C2        1.0  0.8172707888174154  0.37097722976016745  0.9212341914597685  1.0000
  C   C3        1.0  0.23121700843996396  0.20812541218235325  0.7303973644894839  1.0000
  C   C4        1.0  0.5597550690882666  0.8837061387888512  0.6251812379001579  1.0000
  C   C5        1.0  0.18477554444398803  0.48759456670872126  0.21285936744767117  1.0000
  C   C6        1.0  0.5698686342100151  0.8669459368263326  0.22063799693602865  1.0000
  N   N1        1.0  0.37424082138928594  0.8608557470709437  0.8639364098964558  1.0000
  N   N2        1.0  0.9146584478178182  0.48314644092175874  0.5202097793090569  1.0000
  N   N3        1.0  0.20443426075448476  0.8150122133485569  0.8740017102322091  1.0000
  N   N4        1.0  0.7485420458955131  0.42134194916336964  0.5340774048358856  1.0000
  O   O1        1.0  0.1085472506927964  0.8682659772044793  0.24177800158073226  1.0000
  O   O2        1.0  0.8226834970170971  0.2015822480845697  0.9125804118415427  1.0000
  O   O3        1.0  0.3096282104617765  0.35973648858216545  0.8514518275405305  1.0000
  O   O4        1.0  0.6063008062264548  0.7664012778621458  0.6789853957412361  1.0000
  O   O5        1.0  0.7780601004288609  0.5281172684816815  0.9415121991631648  1.0000
  O   O6        1.0  0.433905933988647  0.12301658497342194  0.22469939719255505  1.0000
  O   O7        1.0  0.5182958832163005  0.035780995726864884  0.6201647634413554  1.0000
  O   O8        1.0  0.14598959248477344  0.07902135859370785  0.6148729938592419  1.0000
  O   O9        1.0  0.15363741002403436  0.31604803496172973  0.13106508569274916  1.0000
  O   O10       1.0  0.6622810845704606  0.9379368523813184  0.10989634586965015  1.0000
data_image94
_chemical_formula_structural       Cu2C6N4O10
_chemical_formula_sum              "Cu2 C6 N4 O10"
_cell_length_a       6.950721000000001
_cell_length_b       7.113486077992492
_cell_length_c       8.6539786637408
_cell_angle_alpha    105.43300670560022
_cell_angle_beta     90.64948243757532
_cell_angle_gamma    112.19062950933201

_space_group_name_H-M_alt    "P 1"
_space_group_IT_number       1

loop_
  _space_group_symop_operation_xyz
  'x, y, z'

loop_
  _atom_site_type_symbol
  _atom_site_label
  _atom_site_symmetry_multiplicity
  _atom_site_fract_x
  _atom_site_fract_y
  _atom_site_fract_z
  _atom_site_occupancy
  Cu  Cu1       1.0  0.5150582352562307  0.7215120284453616  0.368405874663372  1.0000
  Cu  Cu2       1.0  0.13266214180741176  0.6218563722609081  0.4559574869684143  1.0000
  C   C1        1.0  0.21443718845982146  0.9249300648350097  0.22662739345682037  1.0000
  C   C2        1.0  0.8290580633135738  0.37985128314311867  0.857520438945705  1.0000
  C   C3        1.0  0.2317364511548344  0.37510119616261806  0.7264828207676083  1.0000
  C   C4        1.0  0.5518029674442685  0.8512861981485953  0.6144502141294967  1.0000
  C   C5        1.0  0.1968154095993356  0.47715259894138917  0.26293654391481275  1.0000
  C   C6        1.0  0.7065031352848101  0.8668272728588988  0.2683448238218623  1.0000
  N   N1        1.0  0.11909489862950018  0.8823875787394476  0.7744740488038068  1.0000
  N   N2        1.0  0.8315078097519992  0.4410415335038351  0.4880939093928907  1.0000
  N   N3        1.0  0.24651431987393027  0.821477090928982  0.7428203977008825  1.0000
  N   N4        1.0  0.6838531045023786  0.464061879477486  0.4910860095066562  1.0000
  O   O1        1.0  0.04202133532019548  0.8121902589499841  0.2394871326864496  1.0000
  O   O2        1.0  0.8816125876379376  0.23289083593158377  0.8384316608313871  1.0000
  O   O3        1.0  0.296704829873539  0.4343991649724146  0.8667994268217301  1.0000
  O   O4        1.0  0.5574647381207904  0.7958909687207005  0.7309612015785022  1.0000
  O   O5        1.0  0.7545072072389319  0.5089912175058988  0.8843484367054932  1.0000
  O   O6        1.0  0.3542477979253271  0.11472121657462697  0.2536924417687545  1.0000
  O   O7        1.0  0.5563296393587445  0.003241332105640371  0.5692066201517729  1.0000
  O   O8        1.0  0.23222750580573925  0.32071081556287995  0.5875830940250892  1.0000
  O   O9        1.0  0.08876770989390052  0.298966286320567  0.201054920383813  1.0000
  O   O10       1.0  0.7276770953135555  0.9297547158014453  0.1539716412384141  1.0000
data_image95
_chemical_formula_structural       Cu2C6N4O10
_chemical_formula_sum              "Cu2 C6 N4 O10"
_cell_length_a       6.950721000000001
_cell_length_b       7.113486077992492
_cell_length_c       8.6539786637408
_cell_angle_alpha    105.43300670560022
_cell_angle_beta     90.64948243757532
_cell_angle_gamma    112.19062950933201

_space_group_name_H-M_alt    "P 1"
_space_group_IT_number       1

loop_
  _space_group_symop_operation_xyz
  'x, y, z'

loop_
  _atom_site_type_symbol
  _atom_site_label
  _atom_site_symmetry_multiplicity
  _atom_site_fract_x
  _atom_site_fract_y
  _atom_site_fract_z
  _atom_site_occupancy
  Cu  Cu1       1.0  0.4955080992375347  0.6692386880234005  0.3371522775975178  1.0000
  Cu  Cu2       1.0  0.23198512812887326  0.5240055950893581  0.47266286101884736  1.0000
  C   C1        1.0  0.18228227951782042  0.047302493608142315  0.28398083415288866  1.0000
  C   C2        1.0  0.824173883564677  0.4145175951066935  0.8865372138049923  1.0000
  C   C3        1.0  0.2993514379727111  0.3647063083498503  0.7628508456631438  1.0000
  C   C4        1.0  0.5850275454307708  0.9045286472569831  0.628046049563608  1.0000
  C   C5        1.0  0.11425856926083783  0.3575144508880592  0.2670799114454113  1.0000
  C   C6        1.0  0.4794392789069173  0.7686473185913503  0.1471168175535547  1.0000
  N   N1        1.0  0.06861069513713908  0.018996867448889142  0.838973554950183  1.0000
  N   N2        1.0  0.7337118590915114  0.6184407502905418  0.44507481862709386  1.0000
  N   N3        1.0  0.06503613125658249  0.8681832175233176  0.7706909551448289  1.0000
  N   N4        1.0  0.7750760625088652  0.4994863003288379  0.48086130634623875  1.0000
  O   O1        1.0  0.16617866889011493  0.8524804363058092  0.2281951187533502  1.0000
  O   O2        1.0  0.963773554606778  0.3718242388724817  0.8262999616737068  1.0000
  O   O3        1.0  0.3335039958898006  0.44887796992028206  0.8963199048918201  1.0000
  O   O4        1.0  0.6632272847362339  0.9067548235732106  0.7567450796934986  1.0000
  O   O5        1.0  0.6949072596212887  0.4625402977253046  0.9591031907871181  1.0000
  O   O6        1.0  0.34000162313349264  0.2039603251347688  0.28491711099924344  1.0000
  O   O7        1.0  0.5184157378048543  0.9600095485742348  0.5179131594611603  1.0000
  O   O8        1.0  0.2352234916902128  0.2745098125144054  0.6214715238891155  1.0000
  O   O9        1.0  0.07397889168323486  0.3091265312883493  0.12300060423446542  1.0000
  O   O10       1.0  0.5743598255785255  0.9267919970217172  0.12135402821797976  1.0000
data_image96
_chemical_formula_structural       Cu2C6N4O10
_chemical_formula_sum              "Cu2 C6 N4 O10"
_cell_length_a       6.950721000000001
_cell_length_b       7.113486077992492
_cell_length_c       8.6539786637408
_cell_angle_alpha    105.43300670560022
_cell_angle_beta     90.64948243757532
_cell_angle_gamma    112.19062950933201

_space_group_name_H-M_alt    "P 1"
_space_group_IT_number       1

loop_
  _space_group_symop_operation_xyz
  'x, y, z'

loop_
  _atom_site_type_symbol
  _atom_site_label
  _atom_site_symmetry_multiplicity
  _atom_site_fract_x
  _atom_site_fract_y
  _atom_site_fract_z
  _atom_site_occupancy
  Cu  Cu1       1.0  0.4632740322813462  0.6257594669382687  0.25511969190340594  1.0000
  Cu  Cu2       1.0  0.29846113715829375  0.3999057140028993  0.4162627926595023  1.0000
  C   C1        1.0  0.10311782167887552  0.9713124895312545  0.29901742002461873  1.0000
  C   C2        1.0  0.8284297301372304  0.4644605114914082  0.8935485359903851  1.0000
  C   C3        1.0  0.3670035045494244  0.5017762391632834  0.8328499863015018  1.0000
  C   C4        1.0  0.6053835557720558  0.0701531389282346  0.6550616941867617  1.0000
  C   C5        1.0  0.15474371336942092  0.49718386426662453  0.2135400469864824  1.0000
  C   C6        1.0  0.5045625833496556  0.863494956350654  0.18002232259320777  1.0000
  N   N1        1.0  0.1165503342585451  0.7927764308850531  0.8931537337002861  1.0000
  N   N2        1.0  0.6310446059584416  0.49506676498509794  0.4208528346838594  1.0000
  N   N3        1.0  0.11172186506919947  0.9325092419715075  0.9892706442806739  1.0000
  N   N4        1.0  0.7287631025272497  0.5494043503786723  0.5437547919492973  1.0000
  O   O1        1.0  0.030346288676172083  0.81971904424823  0.34064724751120434  1.0000
  O   O2        1.0  0.8114946045518202  0.4614195938228478  0.7521803945449882  1.0000
  O   O3        1.0  0.3537672323596139  0.37881256362775284  0.9013047796424892  1.0000
  O   O4        1.0  0.6246114119890952  0.958159230346324  0.7233815808936552  1.0000
  O   O5        1.0  0.8728174936985562  0.5180155734147718  0.03158575602832103  1.0000
  O   O6        1.0  0.2685992277137116  0.08103256883657739  0.24786241825294475  1.0000
  O   O7        1.0  0.5473934911723037  0.11229347969878178  0.540234951777619  1.0000
  O   O8        1.0  0.4199678650234421  0.6260285234648353  0.75366857702111  1.0000
  O   O9        1.0  0.9882917100108746  0.3587885602141866  0.19766042141748733  1.0000
  O   O10       1.0  0.5108384420606445  0.8956991292181773  0.051560104053142104  1.0000
data_image97
_chemical_formula_structural       Cu2C6N4O10
_chemical_formula_sum              "Cu2 C6 N4 O10"
_cell_length_a       6.950721000000001
_cell_length_b       7.113486077992492
_cell_length_c       8.6539786637408
_cell_angle_alpha    105.43300670560022
_cell_angle_beta     90.64948243757532
_cell_angle_gamma    112.19062950933201

_space_group_name_H-M_alt    "P 1"
_space_group_IT_number       1

loop_
  _space_group_symop_operation_xyz
  'x, y, z'

loop_
  _atom_site_type_symbol
  _atom_site_label
  _atom_site_symmetry_multiplicity
  _atom_site_fract_x
  _atom_site_fract_y
  _atom_site_fract_z
  _atom_site_occupancy
  Cu  Cu1       1.0  0.4323494633006295  0.569843978621005  0.21542648783683624  1.0000
  Cu  Cu2       1.0  0.22754895180156687  0.3181453488455833  0.3583452679784879  1.0000
  C   C1        1.0  0.11991282244757101  0.013195543389401099  0.4160189984034426  1.0000
  C   C2        1.0  0.9445053043669661  0.4393658673298597  0.8813361640796453  1.0000
  C   C3        1.0  0.4433926815346038  0.515949432468086  0.8425514507851906  1.0000
  C   C4        1.0  0.5512594944297572  0.042282299991595274  0.5964104241684356  1.0000
  C   C5        1.0  0.0926509992011936  0.482457766485514  0.2895112335253841  1.0000
  C   C6        1.0  0.5825171030065041  0.8725139739514202  0.18667360349631776  1.0000
  N   N1        1.0  0.11029685135294846  0.987639055861094  0.7730269586306945  1.0000
  N   N2        1.0  0.552798643561323  0.4983938693919958  0.5395138076324353  1.0000
  N   N3        1.0  0.14049343558597374  0.862267555446511  0.8156436593032651  1.0000
  N   N4        1.0  0.710014586073821  0.6208703916484892  0.5391162577992106  1.0000
  O   O1        1.0  0.09229942662773107  0.11144867266347491  0.5370864947928125  1.0000
  O   O2        1.0  0.9513514783012449  0.46248670711806716  0.7490450853143157  1.0000
  O   O3        1.0  0.5333080369272737  0.46764585732797337  0.9241466836574734  1.0000
  O   O4        1.0  0.6399846817504706  0.09365490342229554  0.7243050850956727  1.0000
  O   O5        1.0  0.9303710990840481  0.4201296853619909  0.011129632673658518  1.0000
  O   O6        1.0  0.14024661488677326  0.9021139107093025  0.2892014727786014  1.0000
  O   O7        1.0  0.5309190730981322  0.9951937156901576  0.4495368947666727  1.0000
  O   O8        1.0  0.3523528170696835  0.58011483163882  0.7627161774054456  1.0000
  O   O9        1.0  0.943871991026673  0.5076404501061454  0.3527074326136087  1.0000
  O   O10       1.0  0.6557503892217438  0.03681680740506832  0.17881914148030176  1.0000
data_image98
_chemical_formula_structural       Cu2C6N4O10
_chemical_formula_sum              "Cu2 C6 N4 O10"
_cell_length_a       6.950721000000001
_cell_length_b       7.113486077992492
_cell_length_c       8.6539786637408
_cell_angle_alpha    105.43300670560022
_cell_angle_beta     90.64948243757532
_cell_angle_gamma    112.19062950933201

_space_group_name_H-M_alt    "P 1"
_space_group_IT_number       1

loop_
  _space_group_symop_operation_xyz
  'x, y, z'

loop_
  _atom_site_type_symbol
  _atom_site_label
  _atom_site_symmetry_multiplicity
  _atom_site_fract_x
  _atom_site_fract_y
  _atom_site_fract_z
  _atom_site_occupancy
  Cu  Cu1       1.0  0.31701944221043843  0.5626767730458125  0.152702769514696  1.0000
  Cu  Cu2       1.0  0.19722399567512588  0.27075906078979595  0.26743483152424735  1.0000
  C   C1        1.0  0.1351414049175517  0.021815925848850393  0.3803761857937227  1.0000
  C   C2        1.0  0.9337889635510653  0.4560991527395859  0.9544977393394015  1.0000
  C   C3        1.0  0.38953744384106087  0.4611279034726261  0.912540234442729  1.0000
  C   C4        1.0  0.6465113832829191  0.10490487452111319  0.5875147849366428  1.0000
  C   C5        1.0  0.22887006894775336  0.5542132989260744  0.35502976217036025  1.0000
  C   C6        1.0  0.6136647676443666  0.8836891881999367  0.11914915370451165  1.0000
  N   N1        1.0  0.2049597330451087  0.8650303085114593  0.8253871809187517  1.0000
  N   N2        1.0  0.6880475569099174  0.5480942926982535  0.5271282130528397  1.0000
  N   N3        1.0  0.09662697319184597  0.9324222650717047  0.807865886585511  1.0000
  N   N4        1.0  0.6350834235743401  0.6355207157383704  0.6364355405070773  1.0000
  O   O1        1.0  0.16722208956853435  0.134784142747161  0.5286307367256469  1.0000
  O   O2        1.0  0.8796342273330056  0.533752434007488  0.8726535008219253  1.0000
  O   O3        1.0  0.49159814538028934  0.40384763920039823  0.013950937495270708  1.0000
  O   O4        1.0  0.5932249890020084  0.9686063306739137  0.6608649347589388  1.0000
  O   O5        1.0  0.959534156994327  0.38380696760157385  0.05843736482131212  1.0000
  O   O6        1.0  0.15917509465641652  0.8902468637245852  0.27282465627033425  1.0000
  O   O7        1.0  0.6282381661176645  0.19921650017475478  0.49483078630860255  1.0000
  O   O8        1.0  0.3197440367309207  0.5252628027357282  0.8233222569315608  1.0000
  O   O9        1.0  0.1759601363348601  0.6090082538957511  0.47111326802436615  1.0000
  O   O10       1.0  0.7156024141396973  0.05104395271461093  0.20639770606356292  1.0000
data_image99
_chemical_formula_structural       Cu2C6N4O10
_chemical_formula_sum              "Cu2 C6 N4 O10"
_cell_length_a       6.950721000000001
_cell_length_b       7.113486077992492
_cell_length_c       8.6539786637408
_cell_angle_alpha    105.43300670560022
_cell_angle_beta     90.64948243757532
_cell_angle_gamma    112.19062950933201

_space_group_name_H-M_alt    "P 1"
_space_group_IT_number       1

loop_
  _space_group_symop_operation_xyz
  'x, y, z'

loop_
  _atom_site_type_symbol
  _atom_site_label
  _atom_site_symmetry_multiplicity
  _atom_site_fract_x
  _atom_site_fract_y
  _atom_site_fract_z
  _atom_site_occupancy
  Cu  Cu1       1.0  0.2544180525000148  0.5778041873273448  0.195110829756199  1.0000
  Cu  Cu2       1.0  0.17984237160649583  0.1936064331439734  0.22651580871447538  1.0000
  C   C1        1.0  0.2686281884285386  0.017396478261014314  0.37349571402151005  1.0000
  C   C2        1.0  0.8277250453809781  0.487499426998538  0.9128944711464404  1.0000
  C   C3        1.0  0.4166945655778365  0.5028271299886593  0.9238073306098358  1.0000
  C   C4        1.0  0.7205989208563298  0.1728159859903049  0.6275427978573563  1.0000
  C   C5        1.0  0.18500524528377796  0.49662454618155405  0.36584014951138055  1.0000
  C   C6        1.0  0.5352659298667071  0.9089678348750626  0.20381147690199333  1.0000
  N   N1        1.0  0.15656591464541741  0.8154987277212536  0.8474534600351038  1.0000
  N   N2        1.0  0.6708385111647599  0.6824662112034283  0.5427770541012111  1.0000
  N   N3        1.0  0.329866846869343  0.8389951916489394  0.833933142252004  1.0000
  N   N4        1.0  0.660476502855446  0.511135941234357  0.5025500307173401  1.0000
  O   O1        1.0  0.2542985278532814  0.09199279188760578  0.5110717103776046  1.0000
  O   O2        1.0  0.8032773291832944  0.6444546416314196  0.9220102708014909  1.0000
  O   O3        1.0  0.4012739339571201  0.41515308284829167  0.022579383481799137  1.0000
  O   O4        1.0  0.5646608604884439  0.050793010998724686  0.6647778977081932  1.0000
  O   O5        1.0  0.9080383992311681  0.3700553544331282  0.936266170399861  1.0000
  O   O6        1.0  0.14907362080155764  0.9354712607118513  0.23687505996593483  1.0000
  O   O7        1.0  0.8184424674292404  0.30018647228309003  0.5627592285886971  1.0000
  O   O8        1.0  0.3993247919971351  0.5538144916103749  0.8105917314947537  1.0000
  O   O9        1.0  0.24310938778335042  0.5923091773850994  0.5244053718212907  1.0000
  O   O10       1.0  0.695550194241447  0.03210266913294291  0.19255129695957238  1.0000
data_image100
_chemical_formula_structural       Cu2C6N4O10
_chemical_formula_sum              "Cu2 C6 N4 O10"
_cell_length_a       6.950721000000001
_cell_length_b       7.113486077992492
_cell_length_c       8.6539786637408
_cell_angle_alpha    105.43300670560022
_cell_angle_beta     90.64948243757532
_cell_angle_gamma    112.19062950933201

_space_group_name_H-M_alt    "P 1"
_space_group_IT_number       1

loop_
  _space_group_symop_operation_xyz
  'x, y, z'

loop_
  _atom_site_type_symbol
  _atom_site_label
  _atom_site_symmetry_multiplicity
  _atom_site_fract_x
  _atom_site_fract_y
  _atom_site_fract_z
  _atom_site_occupancy
  Cu  Cu1       1.0  0.2510874900897393  0.6152986447441456  0.23506738958498524  1.0000
  Cu  Cu2       1.0  0.17491556533434252  0.24743238853997096  0.2776110562505391  1.0000
  C   C1        1.0  0.22315565758592504  0.01678357725502111  0.3879585208815546  1.0000
  C   C2        1.0  0.8546400051049583  0.5291461534935007  0.04434457577190898  1.0000
  C   C3        1.0  0.3809960963726034  0.4046418717751432  0.8343830539246169  1.0000
  C   C4        1.0  0.7095097597423232  0.20069486898054745  0.6316236207499208  1.0000
  C   C5        1.0  0.29185257070927473  0.5510855660051375  0.43602651451700036  1.0000
  C   C6        1.0  0.5384119923484066  0.7583896207514126  0.1359641302781752  1.0000
  N   N1        1.0  0.27203962877152404  0.9690252745186843  0.8939852260058692  1.0000
  N   N2        1.0  0.7639333532405347  0.6140907830899387  0.32647351380793177  1.0000
  N   N3        1.0  0.10211289815148462  0.9151562878733073  0.8668808311882894  1.0000
  N   N4        1.0  0.6907293258752805  0.4927010702441552  0.2139924927339333  1.0000
  O   O1        1.0  0.19165787799257775  0.028594462798701592  0.5219423572753585  1.0000
  O   O2        1.0  0.8383735766595346  0.6844900332194801  0.012744324953183117  1.0000
  O   O3        1.0  0.27681844633331104  0.3551848021776789  0.9319117632823507  1.0000
  O   O4        1.0  0.6710958702323825  0.030056754415141995  0.6524196810361661  1.0000
  O   O5        1.0  0.945385932106785  0.40731887008269396  0.026370164189928103  1.0000
  O   O6        1.0  0.24384532462349867  0.8924177344111112  0.26218808618533496  1.0000
  O   O7        1.0  0.7904143315343021  0.37118401840268245  0.6215906605236914  1.0000
  O   O8        1.0  0.5089542113493368  0.4543008959759076  0.7470094557499138  1.0000
  O   O9        1.0  0.16108511954136456  0.4880853053332541  0.5071634123748465  1.0000
  O   O10       1.0  0.599047013061126  0.8808177218443286  0.059793285221221314  1.0000
data_image101
_chemical_formula_structural       Cu2C6N4O10
_chemical_formula_sum              "Cu2 C6 N4 O10"
_cell_length_a       6.950721000000001
_cell_length_b       7.113486077992492
_cell_length_c       8.6539786637408
_cell_angle_alpha    105.43300670560022
_cell_angle_beta     90.64948243757532
_cell_angle_gamma    112.19062950933201

_space_group_name_H-M_alt    "P 1"
_space_group_IT_number       1

loop_
  _space_group_symop_operation_xyz
  'x, y, z'

loop_
  _atom_site_type_symbol
  _atom_site_label
  _atom_site_symmetry_multiplicity
  _atom_site_fract_x
  _atom_site_fract_y
  _atom_site_fract_z
  _atom_site_occupancy
  Cu  Cu1       1.0  0.24793526078255068  0.6088916602202622  0.2348840809771951  1.0000
  Cu  Cu2       1.0  0.2033076918389858  0.27790040565254015  0.3168971450735373  1.0000
  C   C1        1.0  0.19419723522506258  0.022175797914414597  0.42218734933305635  1.0000
  C   C2        1.0  0.9089766587797833  0.5481173192878455  0.9608883659110417  1.0000
  C   C3        1.0  0.3082764271061729  0.35303633594500683  0.7377923755231081  1.0000
  C   C4        1.0  0.7509835463066074  0.1192307538352817  0.6445234724981701  1.0000
  C   C5        1.0  0.25433617973085104  0.566651563640341  0.415668001051421  1.0000
  C   C6        1.0  0.5523972997442878  0.768952132260968  0.06811477122774949  1.0000
  N   N1        1.0  0.20842847738993625  0.8890443673286132  0.9261168813117133  1.0000
  N   N2        1.0  0.6580174229571505  0.5935609789241565  0.35824213884834655  1.0000
  N   N3        1.0  0.3419947294200959  0.03667270421512127  0.9676691946285161  1.0000
  N   N4        1.0  0.5994139237617648  0.42596121237095685  0.32611571597265154  1.0000
  O   O1        1.0  0.04918173442309335  0.9981252209380763  0.5035970625948833  1.0000
  O   O2        1.0  0.8024762669028731  0.6387206045479543  0.9928467902360889  1.0000
  O   O3        1.0  0.19628828184413727  0.23333413545096482  0.7886674201500087  1.0000
  O   O4        1.0  0.6458078617093003  0.9571319668814275  0.6641037548343436  1.0000
  O   O5        1.0  0.013311619791822826  0.4494611509634505  0.9743972730400566  1.0000
  O   O6        1.0  0.29717207973652593  0.0038171201839458657  0.29877390220383804  1.0000
  O   O7        1.0  0.8704347374796755  0.27093787492118304  0.623767133040837  1.0000
  O   O8        1.0  0.4599366106190546  0.4977508686655301  0.7192779762898371  1.0000
  O   O9        1.0  0.19385823220648227  0.653401817107337  0.5412285663204518  1.0000
  O   O10       1.0  0.6366849118123603  0.8930340192128807  0.0008259203195830121  1.0000
data_image102
_chemical_formula_structural       Cu2C6N4O10
_chemical_formula_sum              "Cu2 C6 N4 O10"
_cell_length_a       6.950721000000001
_cell_length_b       7.113486077992492
_cell_length_c       8.6539786637408
_cell_angle_alpha    105.43300670560022
_cell_angle_beta     90.64948243757532
_cell_angle_gamma    112.19062950933201

_space_group_name_H-M_alt    "P 1"
_space_group_IT_number       1

loop_
  _space_group_symop_operation_xyz
  'x, y, z'

loop_
  _atom_site_type_symbol
  _atom_site_label
  _atom_site_symmetry_multiplicity
  _atom_site_fract_x
  _atom_site_fract_y
  _atom_site_fract_z
  _atom_site_occupancy
  Cu  Cu1       1.0  0.21719096684020167  0.5380310899354973  0.17038098892842699  1.0000
  Cu  Cu2       1.0  0.18416463698231128  0.32362425607218537  0.32146278374520765  1.0000
  C   C1        1.0  0.12464056130807465  0.06499705764706976  0.33456993903595644  1.0000
  C   C2        1.0  0.9077874974815707  0.5039547820261805  0.000714347435759155  1.0000
  C   C3        1.0  0.41254538666266655  0.32175180369313705  0.7416855963153731  1.0000
  C   C4        1.0  0.6746584579677767  0.018102563060693022  0.6015713237191455  1.0000
  C   C5        1.0  0.13497915126406312  0.6380812801866882  0.41670039349419424  1.0000
  C   C6        1.0  0.4616666801952249  0.8565231975281593  0.20844486132862372  1.0000
  N   N1        1.0  0.31105257751819254  0.10998200898979227  0.9971656356255683  1.0000
  N   N2        1.0  0.8259803412045815  0.5393419355922751  0.48480677555906604  1.0000
  N   N3        1.0  0.47787450228042955  0.14632952505404176  0.0024458471005013305  1.0000
  N   N4        1.0  0.702305359871391  0.40325057535085174  0.3912508986104538  1.0000
  O   O1        1.0  0.9854048538074385  0.9658238914500219  0.3995124130878642  1.0000
  O   O2        1.0  0.8106745809978261  0.59837469956067  0.0705402182474828  1.0000
  O   O3        1.0  0.24945483530429433  0.18914726445404284  0.721399806055564  1.0000
  O   O4        1.0  0.5852289100711477  0.8251929227416366  0.5718123955650033  1.0000
  O   O5        1.0  0.020483320711285113  0.39147130715536416  0.9742557612949495  1.0000
  O   O6        1.0  0.2990712644511943  0.10342310154156342  0.31046118060884864  1.0000
  O   O7        1.0  0.7482103584597751  0.18326941450091683  0.5935193107233623  1.0000
  O   O8        1.0  0.5415955316619104  0.4584611421988354  0.6863476838503686  1.0000
  O   O9        1.0  0.23833465542240306  0.7535104290882154  0.5351273963498525  1.0000
  O   O10       1.0  0.6225901713372598  0.9790977643385074  0.1795462672667661  1.0000
data_image103
_chemical_formula_structural       Cu2C6N4O10
_chemical_formula_sum              "Cu2 C6 N4 O10"
_cell_length_a       6.950721000000001
_cell_length_b       7.113486077992492
_cell_length_c       8.6539786637408
_cell_angle_alpha    105.43300670560022
_cell_angle_beta     90.64948243757532
_cell_angle_gamma    112.19062950933201

_space_group_name_H-M_alt    "P 1"
_space_group_IT_number       1

loop_
  _space_group_symop_operation_xyz
  'x, y, z'

loop_
  _atom_site_type_symbol
  _atom_site_label
  _atom_site_symmetry_multiplicity
  _atom_site_fract_x
  _atom_site_fract_y
  _atom_site_fract_z
  _atom_site_occupancy
  Cu  Cu1       1.0  0.21225716578089848  0.5083894963429962  0.15864579558964856  1.0000
  Cu  Cu2       1.0  0.2561340222738701  0.4135935260863136  0.44870193693381516  1.0000
  C   C1        1.0  0.11786824835406962  0.04973376883638947  0.28460503350663324  1.0000
  C   C2        1.0  0.7989827936618094  0.516820882325483  0.9438036823165473  1.0000
  C   C3        1.0  0.3746702233360083  0.3941647210214041  0.6622911379521053  1.0000
  C   C4        1.0  0.7575779924011699  0.8550155640987736  0.5926200616952113  1.0000
  C   C5        1.0  0.23029544667894433  0.6459492329180678  0.4086367733959971  1.0000
  C   C6        1.0  0.5496047400516284  0.7726229067540364  0.211335876427021  1.0000
  N   N1        1.0  0.29059257410039896  0.2580093521683474  0.007618109285362218  1.0000
  N   N2        1.0  0.800158398044052  0.4066018246817791  0.48041651166861443  1.0000
  N   N3        1.0  0.23220391075671878  0.0777118519206376  0.9531235365223916  1.0000
  N   N4        1.0  0.7955313019048972  0.5123790978574334  0.3989988917938477  1.0000
  O   O1        1.0  0.9471122007413113  0.9127884143813003  0.25115778997520755  1.0000
  O   O2        1.0  0.8018632253595215  0.5734379365653364  0.08767542166315923  1.0000
  O   O3        1.0  0.2269517174990002  0.22205644588615892  0.6312079363876348  1.0000
  O   O4        1.0  0.7077185401476717  0.7187912538415782  0.651398565062797  1.0000
  O   O5        1.0  0.8305158084273174  0.41082128128884476  0.8202117382578707  1.0000
  O   O6        1.0  0.28127537488326254  0.1670815614313954  0.2810170832353547  1.0000
  O   O7        1.0  0.8420136915963778  0.004248388722062568  0.5435528969875001  1.0000
  O   O8        1.0  0.46600122464833676  0.5123256352870476  0.7920354253349604  1.0000
  O   O9        1.0  0.28979664370532804  0.8297466792312939  0.4558081157790875  1.0000
  O   O10       1.0  0.5338331191205994  0.943996218006083  0.25470428985443677  1.0000
data_image104
_chemical_formula_structural       Cu2C6N4O10
_chemical_formula_sum              "Cu2 C6 N4 O10"
_cell_length_a       6.950721000000001
_cell_length_b       7.113486077992492
_cell_length_c       8.6539786637408
_cell_angle_alpha    105.43300670560022
_cell_angle_beta     90.64948243757532
_cell_angle_gamma    112.19062950933201

_space_group_name_H-M_alt    "P 1"
_space_group_IT_number       1

loop_
  _space_group_symop_operation_xyz
  'x, y, z'

loop_
  _atom_site_type_symbol
  _atom_site_label
  _atom_site_symmetry_multiplicity
  _atom_site_fract_x
  _atom_site_fract_y
  _atom_site_fract_z
  _atom_site_occupancy
  Cu  Cu1       1.0  0.22112762879633996  0.4383348818764773  0.08852823005876588  1.0000
  Cu  Cu2       1.0  0.33963020752674333  0.5211075733558757  0.4660995119795244  1.0000
  C   C1        1.0  0.19245692915964652  0.08369639012426888  0.3026747577838309  1.0000
  C   C2        1.0  0.7724706478348671  0.38828494680495496  0.8756430956378181  1.0000
  C   C3        1.0  0.27545252222063676  0.41059116608417323  0.6982837191131022  1.0000
  C   C4        1.0  0.8168404702406445  0.8614336793853585  0.6464159218769908  1.0000
  C   C5        1.0  0.4013503836260446  0.807795612874035  0.5548518714657168  1.0000
  C   C6        1.0  0.36983753043014517  0.7586949313697  0.15232894985862377  1.0000
  N   N1        1.0  0.9739093293592263  0.17202170514354212  0.05690162769735685  1.0000
  N   N2        1.0  0.7563244194317266  0.339484762783  0.4126249282348039  1.0000
  N   N3        1.0  0.115397860425841  0.17330904954120172  0.9785027650834669  1.0000
  N   N4        1.0  0.7395717300243827  0.44811247658559594  0.350324708672588  1.0000
  O   O1        1.0  0.0895259012443879  0.9004873309812836  0.28560013002971507  1.0000
  O   O2        1.0  0.7654406935357871  0.47142968168722277  0.02904181669951078  1.0000
  O   O3        1.0  0.20634242741048409  0.2276924745282627  0.6124636709594731  1.0000
  O   O4        1.0  0.8061982087878207  0.8330497987107717  0.7702046695450145  1.0000
  O   O5        1.0  0.764360483202219  0.28917711628823106  0.7342409974359723  1.0000
  O   O6        1.0  0.334162323696266  0.2504386581836897  0.33714082302690707  1.0000
  O   O7        1.0  0.8366102165615753  0.8849562598015732  0.5093534086393217  1.0000
  O   O8        1.0  0.3281608250212554  0.5184085799778337  0.8366779117117089  1.0000
  O   O9        1.0  0.3479004001544162  0.9293601045412732  0.6446349878429968  1.0000
  O   O10       1.0  0.5476847279093903  0.8865880281325016  0.15698981364336193  1.0000
data_image105
_chemical_formula_structural       Cu2C6N4O10
_chemical_formula_sum              "Cu2 C6 N4 O10"
_cell_length_a       6.950721000000001
_cell_length_b       7.113486077992492
_cell_length_c       8.6539786637408
_cell_angle_alpha    105.43300670560022
_cell_angle_beta     90.64948243757532
_cell_angle_gamma    112.19062950933201

_space_group_name_H-M_alt    "P 1"
_space_group_IT_number       1

loop_
  _space_group_symop_operation_xyz
  'x, y, z'

loop_
  _atom_site_type_symbol
  _atom_site_label
  _atom_site_symmetry_multiplicity
  _atom_site_fract_x
  _atom_site_fract_y
  _atom_site_fract_z
  _atom_site_occupancy
  Cu  Cu1       1.0  0.28766114213241956  0.5177720518983687  0.11595038231072732  1.0000
  Cu  Cu2       1.0  0.3699476840552598  0.5377606147448871  0.4550787900458863  1.0000
  C   C1        1.0  0.16739734527682182  0.0417488298108748  0.3546628810139205  1.0000
  C   C2        1.0  0.713519302108276  0.3366967710084461  0.8617150219029132  1.0000
  C   C3        1.0  0.3222925292866471  0.4666362381974305  0.7096355896965283  1.0000
  C   C4        1.0  0.7811321821819036  0.81398327144634  0.6046661969883494  1.0000
  C   C5        1.0  0.3543725951559181  0.83521516045811  0.5315965875427299  1.0000
  C   C6        1.0  0.508122205199956  0.7245013385527679  0.16632822795982002  1.0000
  N   N1        1.0  0.007013547523343444  0.21496225155626705  0.0019153975372301346  1.0000
  N   N2        1.0  0.6382378836376935  0.3398786028055665  0.3168711494373034  1.0000
  N   N3        1.0  0.9046040801425244  0.057949459362418555  0.003756387916278081  1.0000
  N   N4        1.0  0.6957555321116533  0.3639677568103079  0.43857722119491943  1.0000
  O   O1        1.0  0.1642450926579742  0.9004855678250903  0.392350203137271  1.0000
  O   O2        1.0  0.5820456132702065  0.3568712945074164  0.9423716347586029  1.0000
  O   O3        1.0  0.27189693971598095  0.320203655126555  0.5763770280288927  1.0000
  O   O4        1.0  0.7521620124204265  0.7471905262823637  0.7118566607601948  1.0000
  O   O5        1.0  0.8577689576761901  0.3396427566682354  0.7824043014573833  1.0000
  O   O6        1.0  0.11924881050333072  0.12528726504374244  0.2612981143352129  1.0000
  O   O7        1.0  0.8178314919172098  0.8797493445136839  0.49128341712512813  1.0000
  O   O8        1.0  0.2876160127850249  0.5106222667396139  0.846992617216066  1.0000
  O   O9        1.0  0.38951552091914127  0.9594815686839493  0.6701629222850323  1.0000
  O   O10       1.0  0.6776245113560502  0.8776043263201412  0.20819708762279812  1.0000
data_image106
_chemical_formula_structural       Cu2C6N4O10
_chemical_formula_sum              "Cu2 C6 N4 O10"
_cell_length_a       6.950721000000001
_cell_length_b       7.113486077992492
_cell_length_c       8.6539786637408
_cell_angle_alpha    105.43300670560022
_cell_angle_beta     90.64948243757532
_cell_angle_gamma    112.19062950933201

_space_group_name_H-M_alt    "P 1"
_space_group_IT_number       1

loop_
  _space_group_symop_operation_xyz
  'x, y, z'

loop_
  _atom_site_type_symbol
  _atom_site_label
  _atom_site_symmetry_multiplicity
  _atom_site_fract_x
  _atom_site_fract_y
  _atom_site_fract_z
  _atom_site_occupancy
  Cu  Cu1       1.0  0.28148452933141854  0.5403345655421108  0.16753375714970967  1.0000
  Cu  Cu2       1.0  0.42492713010280136  0.6507698902269392  0.4255088343036625  1.0000
  C   C1        1.0  0.104483107530079  0.9295785823237477  0.29178362231480626  1.0000
  C   C2        1.0  0.7182024090437704  0.4025089999540845  0.8699238852645279  1.0000
  C   C3        1.0  0.3170861170472187  0.3574613613377746  0.7015332518586701  1.0000
  C   C4        1.0  0.7792131747390735  0.8727452784525249  0.7013106041598375  1.0000
  C   C5        1.0  0.332108946649417  0.7772711405505425  0.5862123006694511  1.0000
  C   C6        1.0  0.6591907860858848  0.6737813472598961  0.23348068643573758  1.0000
  N   N1        1.0  0.003172842469536656  0.2071964194197384  0.9976182579054234  1.0000
  N   N2        1.0  0.6442936718353351  0.18507635709556114  0.17664312191502876  1.0000
  N   N3        1.0  0.8419263012041941  0.1672135662204667  0.9516991152480898  1.0000
  N   N4        1.0  0.6303002110193641  0.24906874777358778  0.31759327430933126  1.0000
  O   O1        1.0  0.10514490287580976  0.7583300063997648  0.24217061418189134  1.0000
  O   O2        1.0  0.5957044016298698  0.32997412025570005  0.9495570041705051  1.0000
  O   O3        1.0  0.4068142678099409  0.299156735999933  0.5969777682532518  1.0000
  O   O4        1.0  0.6735394685122584  0.7680774391219138  0.7812198903014513  1.0000
  O   O5        1.0  0.8185824536518161  0.4430039303808311  0.7623591579809122  1.0000
  O   O6        1.0  0.12826651588708524  0.11117374529864055  0.37276741895497234  1.0000
  O   O7        1.0  0.8831084539883884  0.9549772945278896  0.6096621869973611  1.0000
  O   O8        1.0  0.26392300553668574  0.47981290025090173  0.7746870479361114  1.0000
  O   O9        1.0  0.24182351993410114  0.8246057569049807  0.6923656517021346  1.0000
  O   O10       1.0  0.6698686871008945  0.8042137139086725  0.17518644302154499  1.0000
data_image107
_chemical_formula_structural       Cu2C6N4O10
_chemical_formula_sum              "Cu2 C6 N4 O10"
_cell_length_a       6.950721000000001
_cell_length_b       7.113486077992492
_cell_length_c       8.6539786637408
_cell_angle_alpha    105.43300670560022
_cell_angle_beta     90.64948243757532
_cell_angle_gamma    112.19062950933201

_space_group_name_H-M_alt    "P 1"
_space_group_IT_number       1

loop_
  _space_group_symop_operation_xyz
  'x, y, z'

loop_
  _atom_site_type_symbol
  _atom_site_label
  _atom_site_symmetry_multiplicity
  _atom_site_fract_x
  _atom_site_fract_y
  _atom_site_fract_z
  _atom_site_occupancy
  Cu  Cu1       1.0  0.31817156053479634  0.5546015743461606  0.19307240141968426  1.0000
  Cu  Cu2       1.0  0.3825562543425634  0.6733171989620984  0.4541925158096732  1.0000
  C   C1        1.0  0.07379444531834332  0.8488653132727939  0.2379453664295692  1.0000
  C   C2        1.0  0.7374799414591712  0.5463252878386538  0.8441018876463289  1.0000
  C   C3        1.0  0.26433459893232253  0.25197211943542475  0.6390781463650876  1.0000
  C   C4        1.0  0.8299796451633723  0.87686487645978  0.6999181743097994  1.0000
  C   C5        1.0  0.21580073803917701  0.7496238208087779  0.6024877140878526  1.0000
  C   C6        1.0  0.5604934774474908  0.8138186293804224  0.26384996607254885  1.0000
  N   N1        1.0  0.10333288669933624  0.2954602980953148  0.9922915636140489  1.0000
  N   N2        1.0  0.6383111494072641  0.15130421132191252  0.23507569063248113  1.0000
  N   N3        1.0  0.9343983596471428  0.2261874540909391  0.994091638758371  1.0000
  N   N4        1.0  0.8121262672732338  0.2549045555766578  0.22691101953868598  1.0000
  O   O1        1.0  0.11227289993656339  0.6940512912785308  0.15730892463727453  1.0000
  O   O2        1.0  0.6259187942175949  0.5318926042195444  0.9398320226851332  1.0000
  O   O3        1.0  0.3669169609476969  0.17886029050633234  0.5653411289174283  1.0000
  O   O4        1.0  0.6502371921461464  0.7959407257086533  0.7029801622072528  1.0000
  O   O5        1.0  0.8588154471320771  0.5390193345323628  0.7457186271304092  1.0000
  O   O6        1.0  0.9979268619329444  0.9587747129938218  0.3050057949202407  1.0000
  O   O7        1.0  0.9894377091267329  0.9581220840523736  0.6614657731176397  1.0000
  O   O8        1.0  0.17031119358624933  0.32573832339476083  0.7302671084089856  1.0000
  O   O9        1.0  0.2584296323647824  0.812313012433341  0.7412026438318703  1.0000
  O   O10       1.0  0.6245908258992412  0.6645475849637875  0.25590832120998275  1.0000
data_image108
_chemical_formula_structural       Cu2C6N4O10
_chemical_formula_sum              "Cu2 C6 N4 O10"
_cell_length_a       6.950721000000001
_cell_length_b       7.113486077992492
_cell_length_c       8.6539786637408
_cell_angle_alpha    105.43300670560022
_cell_angle_beta     90.64948243757532
_cell_angle_gamma    112.19062950933201

_space_group_name_H-M_alt    "P 1"
_space_group_IT_number       1

loop_
  _space_group_symop_operation_xyz
  'x, y, z'

loop_
  _atom_site_type_symbol
  _atom_site_label
  _atom_site_symmetry_multiplicity
  _atom_site_fract_x
  _atom_site_fract_y
  _atom_site_fract_z
  _atom_site_occupancy
  Cu  Cu1       1.0  0.33382565759494587  0.5516081881767503  0.16356625286911983  1.0000
  Cu  Cu2       1.0  0.3667899275473096  0.6614769052394518  0.4961580823869912  1.0000
  C   C1        1.0  0.05226212765049661  0.8997124330382101  0.1703247915042374  1.0000
  C   C2        1.0  0.7701476118613322  0.5129167004072026  0.8082109622105524  1.0000
  C   C3        1.0  0.27443556463430036  0.24801234613243728  0.6144709973312589  1.0000
  C   C4        1.0  0.7545362232805493  0.7909715933153505  0.5522833578800934  1.0000
  C   C5        1.0  0.1925889038532636  0.7373666023922634  0.677602866771921  1.0000
  C   C6        1.0  0.5459454626179034  0.6336154655460572  0.33286874173062786  1.0000
  N   N1        1.0  0.03412808207671045  0.36954767006728473  0.09064911017706523  1.0000
  N   N2        1.0  0.844262418472596  0.2526871389940637  0.35835430916560224  1.0000
  N   N3        1.0  0.8765767662822057  0.2605049314271046  0.005251100127787289  1.0000
  N   N4        1.0  0.898568468750875  0.41161602246947115  0.4251243363862823  1.0000
  O   O1        1.0  0.012310939441567838  0.7374431646751539  0.06527741885525362  1.0000
  O   O2        1.0  0.632031728556311  0.5507527331849025  0.8741868872512922  1.0000
  O   O3        1.0  0.3957301462845494  0.19119250728659076  0.6620667060524844  1.0000
  O   O4        1.0  0.6332135746050712  0.8708843922481224  0.6459098925894464  1.0000
  O   O5        1.0  0.8963886706027943  0.4647881194453085  0.7449898307575799  1.0000
  O   O6        1.0  0.09735777518114043  0.05541245219358926  0.28744466744383446  1.0000
  O   O7        1.0  0.9282368244591153  0.8118258061779666  0.5631709854700018  1.0000
  O   O8        1.0  0.1073230550719272  0.2592609984011418  0.6029627835635787  1.0000
  O   O9        1.0  0.2462599742503981  0.8581776866631873  0.8033262003175077  1.0000
  O   O10       1.0  0.6281258871134331  0.5979541729574013  0.22717137163905302  1.0000
data_image109
_chemical_formula_structural       Cu2C6N4O10
_chemical_formula_sum              "Cu2 C6 N4 O10"
_cell_length_a       6.950721000000001
_cell_length_b       7.113486077992492
_cell_length_c       8.6539786637408
_cell_angle_alpha    105.43300670560022
_cell_angle_beta     90.64948243757532
_cell_angle_gamma    112.19062950933201

_space_group_name_H-M_alt    "P 1"
_space_group_IT_number       1

loop_
  _space_group_symop_operation_xyz
  'x, y, z'

loop_
  _atom_site_type_symbol
  _atom_site_label
  _atom_site_symmetry_multiplicity
  _atom_site_fract_x
  _atom_site_fract_y
  _atom_site_fract_z
  _atom_site_occupancy
  Cu  Cu1       1.0  0.36011657145215414  0.6076730009719771  0.22667227535092194  1.0000
  Cu  Cu2       1.0  0.35862863174355847  0.6464658117054747  0.5006475468053074  1.0000
  C   C1        1.0  0.08825348257558448  0.9737325058803754  0.11871481590933897  1.0000
  C   C2        1.0  0.7022433294318612  0.5123090663076224  0.8501720075699077  1.0000
  C   C3        1.0  0.32122244522361  0.18756889804398735  0.5413256140904202  1.0000
  C   C4        1.0  0.752701670185327  0.8050430951794816  0.48569515441490235  1.0000
  C   C5        1.0  0.20356025545956613  0.7130249399891022  0.6986032964579213  1.0000
  C   C6        1.0  0.5840926202257757  0.6050005444101059  0.37946128285566677  1.0000
  N   N1        1.0  0.05957347534768033  0.3679859396124401  0.025244611906717562  1.0000
  N   N2        1.0  0.813459447254921  0.20255838012070582  0.43735687300793347  1.0000
  N   N3        1.0  0.8867627785776707  0.23814195077787645  0.9786586921576721  1.0000
  N   N4        1.0  0.8526690539701627  0.3868792040157101  0.4660599422473376  1.0000
  O   O1        1.0  0.013225571153280206  0.7869726394221402  0.0634381902221901  1.0000
  O   O2        1.0  0.592091988929807  0.5658946921786749  0.9401550099706314  1.0000
  O   O3        1.0  0.41511897551074084  0.16029583640612466  0.6385531417778603  1.0000
  O   O4        1.0  0.6390982453239235  0.8808449566573715  0.6166357366056252  1.0000
  O   O5        1.0  0.813886061943507  0.45156955891857287  0.7718708121413825  1.0000
  O   O6        1.0  0.17378398418274746  0.1587298062167517  0.1630009172225324  1.0000
  O   O7        1.0  0.9511538072361897  0.8672344297461889  0.5123246494021354  1.0000
  O   O8        1.0  0.19198004073727865  0.19776451983709764  0.46583280645865255  1.0000
  O   O9        1.0  0.13373461965730268  0.835321053618167  0.7490686267023399  1.0000
  O   O10       1.0  0.5732561111482122  0.4349327229751455  0.325886844643305  1.0000
data_image110
_chemical_formula_structural       Cu2C6N4O10
_chemical_formula_sum              "Cu2 C6 N4 O10"
_cell_length_a       6.950721000000001
_cell_length_b       7.113486077992492
_cell_length_c       8.6539786637408
_cell_angle_alpha    105.43300670560022
_cell_angle_beta     90.64948243757532
_cell_angle_gamma    112.19062950933201

_space_group_name_H-M_alt    "P 1"
_space_group_IT_number       1

loop_
  _space_group_symop_operation_xyz
  'x, y, z'

loop_
  _atom_site_type_symbol
  _atom_site_label
  _atom_site_symmetry_multiplicity
  _atom_site_fract_x
  _atom_site_fract_y
  _atom_site_fract_z
  _atom_site_occupancy
  Cu  Cu1       1.0  0.4049101567685962  0.6874679756604744  0.2556535553657255  1.0000
  Cu  Cu2       1.0  0.28138350902842196  0.6578524014361223  0.5076226851884378  1.0000
  C   C1        1.0  0.12165280987290668  0.9958623335757215  0.11525194966403918  1.0000
  C   C2        1.0  0.6758686697414636  0.4334727702485719  0.8433419046545556  1.0000
  C   C3        1.0  0.3266693547124309  0.21205648681842248  0.5552532426606547  1.0000
  C   C4        1.0  0.7553955243950956  0.8284745583835456  0.5564168219971233  1.0000
  C   C5        1.0  0.13135911826094696  0.7207053227555094  0.6579172415111981  1.0000
  C   C6        1.0  0.5103670282008601  0.5330911989455489  0.32609079382643424  1.0000
  N   N1        1.0  0.051097877890427676  0.3363746982673506  0.07043255462307174  1.0000
  N   N2        1.0  0.8021892356527707  0.1212870823287413  0.3743107217758048  1.0000
  N   N3        1.0  0.09407421554168462  0.3425683165262612  0.9387322353203719  1.0000
  N   N4        1.0  0.8476422801125112  0.2878977486098293  0.47018628204974017  1.0000
  O   O1        1.0  0.006903655541744049  0.8682042308725662  0.16813915638550103  1.0000
  O   O2        1.0  0.6233225891029677  0.5061051536446388  0.9711544228343996  1.0000
  O   O3        1.0  0.3569621511951889  0.11111835989370666  0.6335511935356397  1.0000
  O   O4        1.0  0.6181196061418912  0.8437759252019441  0.6191562046544271  1.0000
  O   O5        1.0  0.7594023910146221  0.38871334670698277  0.7357636621440339  1.0000
  O   O6        1.0  0.2620752421854107  0.07413595624412839  0.04362931877103127  1.0000
  O   O7        1.0  0.9103895264324596  0.8548510760358989  0.49545098833967494  1.0000
  O   O8        1.0  0.3264156843844195  0.2741733241751201  0.44269166081163447  1.0000
  O   O9        1.0  0.0725055214154463  0.7538499565136537  0.7777251897419295  1.0000
  O   O10       1.0  0.6276156565788276  0.459523090392507  0.28060631582793943  1.0000
data_image111
_chemical_formula_structural       Cu2C6N4O10
_chemical_formula_sum              "Cu2 C6 N4 O10"
_cell_length_a       6.950721000000001
_cell_length_b       7.113486077992492
_cell_length_c       8.6539786637408
_cell_angle_alpha    105.43300670560022
_cell_angle_beta     90.64948243757532
_cell_angle_gamma    112.19062950933201

_space_group_name_H-M_alt    "P 1"
_space_group_IT_number       1

loop_
  _space_group_symop_operation_xyz
  'x, y, z'

loop_
  _atom_site_type_symbol
  _atom_site_label
  _atom_site_symmetry_multiplicity
  _atom_site_fract_x
  _atom_site_fract_y
  _atom_site_fract_z
  _atom_site_occupancy
  Cu  Cu1       1.0  0.4328804863130338  0.7225582995607966  0.2925060529564764  1.0000
  Cu  Cu2       1.0  0.21998420317800196  0.6685126159005924  0.4758109657423438  1.0000
  C   C1        1.0  0.16993897347105982  0.9532825472786531  0.1395482300859887  1.0000
  C   C2        1.0  0.6661732761528656  0.4318366936366118  0.8725529521538209  1.0000
  C   C3        1.0  0.3294818455359803  0.1671897166235965  0.5747660564694812  1.0000
  C   C4        1.0  0.8188529761514879  0.8551773179606139  0.5367012467794681  1.0000
  C   C5        1.0  0.0681053673937989  0.6575012334186929  0.6275481793029527  1.0000
  C   C6        1.0  0.5700653760464001  0.529775635148489  0.1905852463539458  1.0000
  N   N1        1.0  0.9815411608621369  0.39881544439325045  0.06591818733852128  1.0000
  N   N2        1.0  0.7626898828030704  0.18094881082683312  0.31721785080904846  1.0000
  N   N3        1.0  0.12831457044616995  0.5191844560383487  0.06259547074016791  1.0000
  N   N4        1.0  0.8084704461318599  0.13152064689064957  0.41156205081386177  1.0000
  O   O1        1.0  0.06365627108559258  0.9534322518692206  0.23741916233350335  1.0000
  O   O2        1.0  0.6675915340697663  0.5895498380248825  0.840349353339097  1.0000
  O   O3        1.0  0.27502036502732446  0.07114944781871357  0.6789097583971624  1.0000
  O   O4        1.0  0.7550476079471747  0.9685713848982536  0.6140663170947123  1.0000
  O   O5        1.0  0.6749934117153569  0.2669957488729253  0.8721174104311964  1.0000
  O   O6        1.0  0.305068300819128  0.9689927198441483  0.056319979952209165  1.0000
  O   O7        1.0  0.8785251055056255  0.7187050418596643  0.45882539874009365  1.0000
  O   O8        1.0  0.3956707225875682  0.27458204510235795  0.4884657752760704  1.0000
  O   O9        1.0  0.06526070071664351  0.705525178859612  0.7705476097479595  1.0000
  O   O10       1.0  0.6310228062764636  0.4080985225314417  0.21034210213529958  1.0000
data_image112
_chemical_formula_structural       Cu2C6N4O10
_chemical_formula_sum              "Cu2 C6 N4 O10"
_cell_length_a       6.950721000000001
_cell_length_b       7.113486077992492
_cell_length_c       8.6539786637408
_cell_angle_alpha    105.43300670560022
_cell_angle_beta     90.64948243757532
_cell_angle_gamma    112.19062950933201

_space_group_name_H-M_alt    "P 1"
_space_group_IT_number       1

loop_
  _space_group_symop_operation_xyz
  'x, y, z'

loop_
  _atom_site_type_symbol
  _atom_site_label
  _atom_site_symmetry_multiplicity
  _atom_site_fract_x
  _atom_site_fract_y
  _atom_site_fract_z
  _atom_site_occupancy
  Cu  Cu1       1.0  0.45335723548287055  0.7580241036034389  0.21802547269061368  1.0000
  Cu  Cu2       1.0  0.21391300103692124  0.7177468254479248  0.45132881433912647  1.0000
  C   C1        1.0  0.20466182072477002  0.96100186595588  0.18964620739804627  1.0000
  C   C2        1.0  0.7323665208296358  0.3585038514023089  0.7922651630815691  1.0000
  C   C3        1.0  0.2753589183064679  0.24367467417181388  0.6206816647583447  1.0000
  C   C4        1.0  0.7469673893518235  0.7192846574949792  0.5155984064001652  1.0000
  C   C5        1.0  0.24232994557063506  0.6530367154328509  0.6645877998016541  1.0000
  C   C6        1.0  0.4771547362129524  0.49426906706657864  0.30387280262392574  1.0000
  N   N1        1.0  0.04335908259389674  0.5588016424602821  0.12112931807986116  1.0000
  N   N2        1.0  0.6645922317035782  0.07144676391215654  0.35662930563632844  1.0000
  N   N3        1.0  0.13312200841594926  0.5756981249018612  0.23945731110160784  1.0000
  N   N4        1.0  0.8266387078280666  0.19711843314853628  0.34922373545191016  1.0000
  O   O1        1.0  0.19084186397317043  0.010590678357739858  0.32761445205957473  1.0000
  O   O2        1.0  0.82316646402145  0.49562115023943365  0.7452026641920817  1.0000
  O   O3        1.0  0.11852647692916848  0.13207402630700482  0.6742456601898388  1.0000
  O   O4        1.0  0.645013969663215  0.7947271884156888  0.6006961738128036  1.0000
  O   O5        1.0  0.6088745518886309  0.2437113617033042  0.8698933517733304  1.0000
  O   O6        1.0  0.23562404996608652  0.9308217640919076  0.054555344118186966  1.0000
  O   O7        1.0  0.8496255894309586  0.6471427569707335  0.4469582499430915  1.0000
  O   O8        1.0  0.39534857456688643  0.36449150632344685  0.5647046318010316  1.0000
  O   O9        1.0  0.3006994032231604  0.6236150429329714  0.7813644349166274  1.0000
  O   O10       1.0  0.46048345682592784  0.31582375106046384  0.2593270343837587  1.0000
data_image113
_chemical_formula_structural       Cu2C6N4O10
_chemical_formula_sum              "Cu2 C6 N4 O10"
_cell_length_a       6.950721000000001
_cell_length_b       7.113486077992492
_cell_length_c       8.6539786637408
_cell_angle_alpha    105.43300670560022
_cell_angle_beta     90.64948243757532
_cell_angle_gamma    112.19062950933201

_space_group_name_H-M_alt    "P 1"
_space_group_IT_number       1

loop_
  _space_group_symop_operation_xyz
  'x, y, z'

loop_
  _atom_site_type_symbol
  _atom_site_label
  _atom_site_symmetry_multiplicity
  _atom_site_fract_x
  _atom_site_fract_y
  _atom_site_fract_z
  _atom_site_occupancy
  Cu  Cu1       1.0  0.4868393639541735  0.7692432527885351  0.1363063825430442  1.0000
  Cu  Cu2       1.0  0.2151684184589453  0.741919303445246  0.5419225753457997  1.0000
  C   C1        1.0  0.14959515292989686  0.9824572659395506  0.15503907341306156  1.0000
  C   C2        1.0  0.7888481833123089  0.27203771931635723  0.770176273237798  1.0000
  C   C3        1.0  0.18219660082209224  0.22379995568221478  0.6533188540287886  1.0000
  C   C4        1.0  0.7741894236453427  0.7210246913949192  0.5318313050471658  1.0000
  C   C5        1.0  0.36142560632680454  0.7348836292117259  0.7172431195437065  1.0000
  C   C6        1.0  0.44473832919553435  0.5317298850025867  0.23104051816061663  1.0000
  N   N1        1.0  0.9900509372298908  0.32270221022922496  0.10583525639966007  1.0000
  N   N2        1.0  0.7032219345753044  0.06459650312671217  0.26442975219379633  1.0000
  N   N3        1.0  0.007697210479709042  0.48721799714430725  0.17666869973157517  1.0000
  N   N4        1.0  0.717237767881935  0.2352444250163579  0.3091059013186564  1.0000
  O   O1        1.0  0.17939130249596075  0.9832634824273545  0.2878804029736297  1.0000
  O   O2        1.0  0.9637560891190053  0.3909215860884303  0.7665670058774341  1.0000
  O   O3        1.0  0.08526468168181361  0.0656514433049129  0.6799987555549454  1.0000
  O   O4        1.0  0.7034283925893932  0.8358626148447919  0.6209640012146866  1.0000
  O   O5        1.0  0.611504428469006  0.17436681943472565  0.7863920314537962  1.0000
  O   O6        1.0  0.15452395720349374  0.9916724827726644  0.016485666914296093  1.0000
  O   O7        1.0  0.8792757487234683  0.6175773537184868  0.5282401862407387  1.0000
  O   O8        1.0  0.2951437902797839  0.3816734355478766  0.6317402626613233  1.0000
  O   O9        1.0  0.37735297849494975  0.7774454069434015  0.8573733053066978  1.0000
  O   O10       1.0  0.4427480726029521  0.43013582150850604  0.31832857966276995  1.0000
data_image114
_chemical_formula_structural       Cu2C6N4O10
_chemical_formula_sum              "Cu2 C6 N4 O10"
_cell_length_a       6.950721000000001
_cell_length_b       7.113486077992492
_cell_length_c       8.6539786637408
_cell_angle_alpha    105.43300670560022
_cell_angle_beta     90.64948243757532
_cell_angle_gamma    112.19062950933201

_space_group_name_H-M_alt    "P 1"
_space_group_IT_number       1

loop_
  _space_group_symop_operation_xyz
  'x, y, z'

loop_
  _atom_site_type_symbol
  _atom_site_label
  _atom_site_symmetry_multiplicity
  _atom_site_fract_x
  _atom_site_fract_y
  _atom_site_fract_z
  _atom_site_occupancy
  Cu  Cu1       1.0  0.49713030555200377  0.7221155783444292  0.09734573024659585  1.0000
  Cu  Cu2       1.0  0.16525402401649794  0.7374372303012842  0.5936857945492026  1.0000
  C   C1        1.0  0.13081421155082756  0.9258368373468854  0.15310351030576852  1.0000
  C   C2        1.0  0.7482884683228536  0.2910922615603251  0.7734719214465913  1.0000
  C   C3        1.0  0.2724215797611835  0.26339694253388646  0.6908404718797002  1.0000
  C   C4        1.0  0.7635107241119874  0.765487418401142  0.4739428986514839  1.0000
  C   C5        1.0  0.37271208333544853  0.7776421998796087  0.7524098183395583  1.0000
  C   C6        1.0  0.49192217352568796  0.5210273010038983  0.24279590115225982  1.0000
  N   N1        1.0  0.008515769835523485  0.422574187295783  0.13121013493958245  1.0000
  N   N2        1.0  0.5827211954699277  0.9708150530351207  0.2704039394742664  1.0000
  N   N3        1.0  0.03505569921857729  0.5454576200740047  0.07176684798016297  1.0000
  N   N4        1.0  0.7090870649815408  0.12403425167321913  0.36004344761847934  1.0000
  O   O1        1.0  0.19460225502789782  0.9896985516489802  0.29764135718717744  1.0000
  O   O2        1.0  0.9159993151970593  0.30533589789719007  0.7170365854402712  1.0000
  O   O3        1.0  0.1611392726355401  0.13914084791293058  0.7532092456544053  1.0000
  O   O4        1.0  0.7407735434566505  0.9033086245061053  0.5674390334226405  1.0000
  O   O5        1.0  0.6102490829845255  0.27174837164640353  0.8511853717621294  1.0000
  O   O6        1.0  0.0632563169031408  0.8828414937213012  0.026044998176775858  1.0000
  O   O7        1.0  0.9082166142948942  0.6958468742562343  0.4177901083637845  1.0000
  O   O8        1.0  0.40384848510378857  0.35263893183631945  0.6227911738225231  1.0000
  O   O9        1.0  0.5111579391519268  0.8529570915189221  0.8744049889137508  1.0000
  O   O10       1.0  0.35217657089342674  0.4418777141295794  0.3130283714875489  1.0000
data_image115
_chemical_formula_structural       Cu2C6N4O10
_chemical_formula_sum              "Cu2 C6 N4 O10"
_cell_length_a       6.950721000000001
_cell_length_b       7.113486077992492
_cell_length_c       8.6539786637408
_cell_angle_alpha    105.43300670560022
_cell_angle_beta     90.64948243757532
_cell_angle_gamma    112.19062950933201

_space_group_name_H-M_alt    "P 1"
_space_group_IT_number       1

loop_
  _space_group_symop_operation_xyz
  'x, y, z'

loop_
  _atom_site_type_symbol
  _atom_site_label
  _atom_site_symmetry_multiplicity
  _atom_site_fract_x
  _atom_site_fract_y
  _atom_site_fract_z
  _atom_site_occupancy
  Cu  Cu1       1.0  0.5439350536753627  0.7817631090797322  0.18350679108862492  1.0000
  Cu  Cu2       1.0  0.11146164055283048  0.6728663483420378  0.546771860016103  1.0000
  C   C1        1.0  0.06152417485741863  0.9093706453043263  0.09258592389958653  1.0000
  C   C2        1.0  0.7743880787805614  0.2572903505979762  0.7846588724102306  1.0000
  C   C3        1.0  0.3101296820595985  0.23260807145710305  0.7452644712139659  1.0000
  C   C4        1.0  0.8378140587516321  0.7767922190813257  0.5271803348906433  1.0000
  C   C5        1.0  0.3786486209308393  0.7922958752679788  0.6639762503161218  1.0000
  C   C6        1.0  0.3698076222821468  0.506637066064958  0.2211535092402668  1.0000
  N   N1        1.0  0.9602335217222056  0.5383928594231604  0.21213194569391414  1.0000
  N   N2        1.0  0.7387218955614087  0.031125810401948506  0.2658579743194909  1.0000
  N   N3        1.0  0.0347890922677398  0.48727162536115903  0.10077539686841441  1.0000
  N   N4        1.0  0.7907215909596199  0.20194543643001328  0.2977776688905109  1.0000
  O   O1        1.0  0.18094892637897464  0.9225286750789303  0.18583346461516093  1.0000
  O   O2        1.0  0.8805670471183935  0.31859462819080453  0.6808621640798642  1.0000
  O   O3        1.0  0.14645074430486432  0.14570375627449694  0.7992002361309133  1.0000
  O   O4        1.0  0.7434806065510443  0.8629760495333212  0.5972659514200304  1.0000
  O   O5        1.0  0.7063951668693798  0.26596560555624094  0.9085169789529282  1.0000
  O   O6        1.0  0.932885373073534  0.9086119507147914  0.007099220360776259  1.0000
  O   O7        1.0  0.9569457767332578  0.7919494754050165  0.412511192344317  1.0000
  O   O8        1.0  0.46281090726495816  0.3405419493012565  0.6998165641113048  1.0000
  O   O9        1.0  0.4565509114749769  0.8562544087967984  0.8029212595035288  1.0000
  O   O10       1.0  0.29361664307176494  0.3195594010010397  0.19215920622987498  1.0000
data_image116
_chemical_formula_structural       Cu2C6N4O10
_chemical_formula_sum              "Cu2 C6 N4 O10"
_cell_length_a       6.950721000000001
_cell_length_b       7.113486077992492
_cell_length_c       8.6539786637408
_cell_angle_alpha    105.43300670560022
_cell_angle_beta     90.64948243757532
_cell_angle_gamma    112.19062950933201

_space_group_name_H-M_alt    "P 1"
_space_group_IT_number       1

loop_
  _space_group_symop_operation_xyz
  'x, y, z'

loop_
  _atom_site_type_symbol
  _atom_site_label
  _atom_site_symmetry_multiplicity
  _atom_site_fract_x
  _atom_site_fract_y
  _atom_site_fract_z
  _atom_site_occupancy
  Cu  Cu1       1.0  0.5703837704896759  0.7857745789270895  0.2251463809553667  1.0000
  Cu  Cu2       1.0  0.15627921552397628  0.6920731799024094  0.5064599496345237  1.0000
  C   C1        1.0  0.020820467189914118  0.8674486580339876  0.9717787485102457  1.0000
  C   C2        1.0  0.6599100998051085  0.3231767483381467  0.7920475891499554  1.0000
  C   C3        1.0  0.2503291861172489  0.2879056587980875  0.6646383891784733  1.0000
  C   C4        1.0  0.887728031265988  0.8475233217711395  0.6079181382953501  1.0000
  C   C5        1.0  0.24479454194205882  0.6090842350052867  0.6967656242154184  1.0000
  C   C6        1.0  0.5164156474593479  0.5041981462748027  0.15394650960553177  1.0000
  N   N1        1.0  0.9909063075336828  0.36484397352310804  0.2220976734848903  1.0000
  N   N2        1.0  0.7204738960586468  0.07820268218058546  0.3613557861103049  1.0000
  N   N3        1.0  0.996309129879133  0.445846543379101  0.12934504535525893  1.0000
  N   N4        1.0  0.8761492572464306  0.15312411404247017  0.43448734421149005  1.0000
  O   O1        1.0  0.21167801867548494  0.9605208707013113  0.011383579271356137  1.0000
  O   O2        1.0  0.7697579479618086  0.3921096458583462  0.6990232909404316  1.0000
  O   O3        1.0  0.20291225760609238  0.3018704300198958  0.7992727664362765  1.0000
  O   O4        1.0  0.8280406932516208  0.9754687387363554  0.6843905692341646  1.0000
  O   O5        1.0  0.5851549988396298  0.26122724330094327  0.8999718386047022  1.0000
  O   O6        1.0  0.8400196582980353  0.8234705238711386  0.9581000914579756  1.0000
  O   O7        1.0  0.9171495283804089  0.7174213112536811  0.4935963382560482  1.0000
  O   O8        1.0  0.3761500173181166  0.35732910697544606  0.5745268972329718  1.0000
  O   O9        1.0  0.3549513135085942  0.7133066517358195  0.8257314868928163  1.0000
  O   O10       1.0  0.45899551316104703  0.35781047618204154  0.2075904203660117  1.0000
data_image117
_chemical_formula_structural       Cu2C6N4O10
_chemical_formula_sum              "Cu2 C6 N4 O10"
_cell_length_a       6.950721000000001
_cell_length_b       7.113486077992492
_cell_length_c       8.6539786637408
_cell_angle_alpha    105.43300670560022
_cell_angle_beta     90.64948243757532
_cell_angle_gamma    112.19062950933201

_space_group_name_H-M_alt    "P 1"
_space_group_IT_number       1

loop_
  _space_group_symop_operation_xyz
  'x, y, z'

loop_
  _atom_site_type_symbol
  _atom_site_label
  _atom_site_symmetry_multiplicity
  _atom_site_fract_x
  _atom_site_fract_y
  _atom_site_fract_z
  _atom_site_occupancy
  Cu  Cu1       1.0  0.4632586788272448  0.7602010996462454  0.19710815017096503  1.0000
  Cu  Cu2       1.0  0.18641721129304234  0.6820679534232084  0.514706788987904  1.0000
  C   C1        1.0  0.0636138669318417  0.9179216008684378  0.9457279574607201  1.0000
  C   C2        1.0  0.659896656329675  0.34454679972951086  0.8952600152713052  1.0000
  C   C3        1.0  0.23382450294557866  0.27046450649249243  0.5271916896876432  1.0000
  C   C4        1.0  0.8440898560590532  0.8417904457333052  0.6295447942409612  1.0000
  C   C5        1.0  0.41727252073811755  0.7597119056612824  0.6644495176460479  1.0000
  C   C6        1.0  0.5382038907076567  0.4675393950901455  0.24396514162877853  1.0000
  N   N1        1.0  0.09622761006134034  0.4350289010342879  0.21615386064622388  1.0000
  N   N2        1.0  0.6967098428301867  0.9667806395247205  0.35047580629868064  1.0000
  N   N3        1.0  0.25091785020036844  0.5488836975887479  0.2817028596600024  1.0000
  N   N4        1.0  0.5990713372378509  0.03537986978203733  0.45353306755171147  1.0000
  O   O1        1.0  0.15826802554900757  0.9929772086633828  0.8532804624430397  1.0000
  O   O2        1.0  0.6992370017979886  0.4738703489599132  0.8174025165181669  1.0000
  O   O3        1.0  0.23950788483787955  0.2721103425034983  0.6657856428987954  1.0000
  O   O4        1.0  0.8191013667066904  0.008132925658121959  0.7135426591831083  1.0000
  O   O5        1.0  0.5747480486900307  0.23175058943817306  0.9719915094300113  1.0000
  O   O6        1.0  0.9596171949538713  0.8397814701531034  0.034384179831611794  1.0000
  O   O7        1.0  0.9678043368451996  0.7582582765163166  0.5881816063077099  1.0000
  O   O8        1.0  0.16254651592706434  0.20389004551703072  0.38318623337779956  1.0000
  O   O9        1.0  0.45591738683912125  0.7971778219660863  0.8027956202734797  1.0000
  O   O10       1.0  0.6299697927544242  0.3505534565447418  0.2523391664667017  1.0000
data_image118
_chemical_formula_structural       Cu2C6N4O10
_chemical_formula_sum              "Cu2 C6 N4 O10"
_cell_length_a       6.950721000000001
_cell_length_b       7.113486077992492
_cell_length_c       8.6539786637408
_cell_angle_alpha    105.43300670560022
_cell_angle_beta     90.64948243757532
_cell_angle_gamma    112.19062950933201

_space_group_name_H-M_alt    "P 1"
_space_group_IT_number       1

loop_
  _space_group_symop_operation_xyz
  'x, y, z'

loop_
  _atom_site_type_symbol
  _atom_site_label
  _atom_site_symmetry_multiplicity
  _atom_site_fract_x
  _atom_site_fract_y
  _atom_site_fract_z
  _atom_site_occupancy
  Cu  Cu1       1.0  0.4308975788811171  0.7659104714216459  0.19103136937986073  1.0000
  Cu  Cu2       1.0  0.2757532174102832  0.6811144087407071  0.5047547281114234  1.0000
  C   C1        1.0  0.18522942673537196  0.9804018793636116  0.01737925606083901  1.0000
  C   C2        1.0  0.5717512933407916  0.3421837519432682  0.9165357261694558  1.0000
  C   C3        1.0  0.19751420421502328  0.23875295992553003  0.5058066101022172  1.0000
  C   C4        1.0  0.8495214207639221  0.8854262866490288  0.5557423650877876  1.0000
  C   C5        1.0  0.425404570692203  0.7647754368290564  0.757383567147094  1.0000
  C   C6        1.0  0.8044708509013083  0.483186238543484  0.2195154968318358  1.0000
  N   N1        1.0  0.09823320019648858  0.3270370899991991  0.17670148009256503  1.0000
  N   N2        1.0  0.5182575538584953  0.9606039456524451  0.3896906884959288  1.0000
  N   N3        1.0  0.13950027101388443  0.5016650432207479  0.2622440379881039  1.0000
  N   N4        1.0  0.6182209684452297  0.10951772152559158  0.48617920930650593  1.0000
  O   O1        1.0  0.18499958914669318  0.09041582651446678  0.9408479161007195  1.0000
  O   O2        1.0  0.5328761163748273  0.4502310579196027  0.8471325681737515  1.0000
  O   O3        1.0  0.2756142444314126  0.4293858777647357  0.5852586124508118  1.0000
  O   O4        1.0  0.7671187134545868  0.9553842306612033  0.6620758117849005  1.0000
  O   O5        1.0  0.603851509953885  0.2147899120075334  0.9768942734805746  1.0000
  O   O6        1.0  0.1716849764328621  0.8679058553158785  0.10865880829930186  1.0000
  O   O7        1.0  0.8586585815554895  0.7595094163649363  0.4580207697264851  1.0000
  O   O8        1.0  0.08595258344994945  0.09196516474118721  0.39682666234501984  1.0000
  O   O9        1.0  0.3060819260565008  0.693164613378427  0.8322443768100022  1.0000
  O   O10       1.0  0.6776408201723728  0.3610518232807541  0.2774180564305614  1.0000
data_image119
_chemical_formula_structural       Cu2C6N4O10
_chemical_formula_sum              "Cu2 C6 N4 O10"
_cell_length_a       6.950721000000001
_cell_length_b       7.113486077992492
_cell_length_c       8.6539786637408
_cell_angle_alpha    105.43300670560022
_cell_angle_beta     90.64948243757532
_cell_angle_gamma    112.19062950933201

_space_group_name_H-M_alt    "P 1"
_space_group_IT_number       1

loop_
  _space_group_symop_operation_xyz
  'x, y, z'

loop_
  _atom_site_type_symbol
  _atom_site_label
  _atom_site_symmetry_multiplicity
  _atom_site_fract_x
  _atom_site_fract_y
  _atom_site_fract_z
  _atom_site_occupancy
  Cu  Cu1       1.0  0.4493607228223544  0.7051227170013908  0.18872459338979367  1.0000
  Cu  Cu2       1.0  0.35789599405916944  0.7104527564475587  0.462653406479336  1.0000
  C   C1        1.0  0.1714774117580605  0.9863365699383245  0.106618100058957  1.0000
  C   C2        1.0  0.493268274406314  0.26900511624144263  0.898455909394884  1.0000
  C   C3        1.0  0.21037995529354056  0.2870860231617198  0.5070813932051854  1.0000
  C   C4        1.0  0.75822745214416  0.7508016786681531  0.6213607151413056  1.0000
  C   C5        1.0  0.27133777475675475  0.7400446427857644  0.656944545692376  1.0000
  C   C6        1.0  0.8053795248264649  0.6801309902914192  0.18397199745003595  1.0000
  N   N1        1.0  0.06738329144562952  0.34922846743845765  0.19462803220213232  1.0000
  N   N2        1.0  0.5189242744561724  0.9926960313906901  0.41063073403943906  1.0000
  N   N3        1.0  0.1813170717086584  0.49611082897504594  0.18887839028485565  1.0000
  N   N4        1.0  0.5327140277510884  0.13496159902239002  0.5054911490333059  1.0000
  O   O1        1.0  0.0444931895922647  0.9460703273052542  0.002924211893369888  1.0000
  O   O2        1.0  0.4840167959804017  0.43752053608531116  0.9115629686406422  1.0000
  O   O3        1.0  0.38850852581258216  0.41848576203863574  0.509538771827819  1.0000
  O   O4        1.0  0.6774815081138318  0.8387662213373555  0.6989543302392941  1.0000
  O   O5        1.0  0.5095219078490406  0.1027428248926825  0.8408643647896432  1.0000
  O   O6        1.0  0.3435715138708919  0.03314420430888254  0.17319758238222716  1.0000
  O   O7        1.0  0.9167906724519015  0.7365230462281285  0.5642110137276273  1.0000
  O   O8        1.0  0.04724773018968958  0.1923829619970201  0.5306449450170942  1.0000
  O   O9        1.0  0.23998606506332307  0.699601606589378  0.7803957579089487  1.0000
  O   O10       1.0  0.7243823884304473  0.5552469101507226  0.26146866622573545  1.0000
data_image120
_chemical_formula_structural       Cu2C6N4O10
_chemical_formula_sum              "Cu2 C6 N4 O10"
_cell_length_a       6.950721000000001
_cell_length_b       7.113486077992492
_cell_length_c       8.6539786637408
_cell_angle_alpha    105.43300670560022
_cell_angle_beta     90.64948243757532
_cell_angle_gamma    112.19062950933201

_space_group_name_H-M_alt    "P 1"
_space_group_IT_number       1

loop_
  _space_group_symop_operation_xyz
  'x, y, z'

loop_
  _atom_site_type_symbol
  _atom_site_label
  _atom_site_symmetry_multiplicity
  _atom_site_fract_x
  _atom_site_fract_y
  _atom_site_fract_z
  _atom_site_occupancy
  Cu  Cu1       1.0  0.4180585185882748  0.7126592375216583  0.2055355836364531  1.0000
  Cu  Cu2       1.0  0.38694782802415795  0.7256608893860457  0.5082544566971748  1.0000
  C   C1        1.0  0.09334326236518098  0.9324158077613339  0.051533671049919905  1.0000
  C   C2        1.0  0.520424625668625  0.3225336773456804  0.8763298624452429  1.0000
  C   C3        1.0  0.22730563249897714  0.321005400099982  0.5543712175026265  1.0000
  C   C4        1.0  0.8965574590871844  0.8337104287731334  0.6306964685811709  1.0000
  C   C5        1.0  0.20062892901468923  0.6563637078561517  0.6487534999941408  1.0000
  C   C6        1.0  0.656517808840772  0.6199382997431603  0.23513132563418002  1.0000
  N   N1        1.0  0.008778892129540826  0.32982524764772736  0.027008654910725127  1.0000
  N   N2        1.0  0.557306378944483  0.9971494422946998  0.5007856346366089  1.0000
  N   N3        1.0  0.17492822155971513  0.47303804568865  0.07782810621278857  1.0000
  N   N4        1.0  0.6792333235626759  0.15092285104192094  0.5344945114274299  1.0000
  O   O1        1.0  0.9751450290628794  0.7727106582697731  0.9817392506521124  1.0000
  O   O2        1.0  0.5621602819673049  0.4716450110150021  0.8322878485397533  1.0000
  O   O3        1.0  0.25983525839546084  0.3485852495391233  0.43534516306030313  1.0000
  O   O4        1.0  0.7790435326951037  0.8178500361972645  0.7226819755998861  1.0000
  O   O5        1.0  0.4376008742796966  0.13756252373515387  0.87459354015812  1.0000
  O   O6        1.0  0.24657265177853813  0.08229532209844881  0.12054055702986854  1.0000
  O   O7        1.0  0.9261577665651909  0.7595622350913207  0.5039697714175224  1.0000
  O   O8        1.0  0.15705337710783268  0.23465303072414545  0.663848341793704  1.0000
  O   O9        1.0  0.19405100069116019  0.6781490982462239  0.7895173665036817  1.0000
  O   O10       1.0  0.8221481370517427  0.6018377922674935  0.2219854127299504  1.0000
data_image121
_chemical_formula_structural       Cu2C6N4O10
_chemical_formula_sum              "Cu2 C6 N4 O10"
_cell_length_a       6.950721000000001
_cell_length_b       7.113486077992492
_cell_length_c       8.6539786637408
_cell_angle_alpha    105.43300670560022
_cell_angle_beta     90.64948243757532
_cell_angle_gamma    112.19062950933201

_space_group_name_H-M_alt    "P 1"
_space_group_IT_number       1

loop_
  _space_group_symop_operation_xyz
  'x, y, z'

loop_
  _atom_site_type_symbol
  _atom_site_label
  _atom_site_symmetry_multiplicity
  _atom_site_fract_x
  _atom_site_fract_y
  _atom_site_fract_z
  _atom_site_occupancy
  Cu  Cu1       1.0  0.45221195745943676  0.6780135769128821  0.17619052272525587  1.0000
  Cu  Cu2       1.0  0.4215248053127582  0.7865076999030135  0.5751986747020216  1.0000
  C   C1        1.0  0.9508147405611529  0.8441050302966289  0.9894039339901314  1.0000
  C   C2        1.0  0.48836291440334534  0.28798639363215295  0.8672459160115965  1.0000
  C   C3        1.0  0.17069856489745222  0.2500458588992789  0.4442561751498383  1.0000
  C   C4        1.0  0.8844806263558054  0.8435401513872447  0.619015259180985  1.0000
  C   C5        1.0  0.41368538215425993  0.7027454117622316  0.750950826835866  1.0000
  C   C6        1.0  0.6656106100957616  0.5927446687923732  0.18187759647075682  1.0000
  N   N1        1.0  0.033027718069762346  0.37515564702552334  0.0026711040283815546  1.0000
  N   N2        1.0  0.5821187231689401  0.09417645011867304  0.5541779183964771  1.0000
  N   N3        1.0  0.10633911524059102  0.49345554313869244  0.13192724096547015  1.0000
  N   N4        1.0  0.7174438268401001  0.22877870780583498  0.5430923857318762  1.0000
  O   O1        1.0  0.9355210909800591  0.6701446731560614  0.9566284897436218  1.0000
  O   O2        1.0  0.5783361659286724  0.3986176653985578  0.7959793351726747  1.0000
  O   O3        1.0  0.1543460358392477  0.250133213197552  0.3089004586143286  1.0000
  O   O4        1.0  0.8271670459086891  0.9724536260841572  0.7217044337760412  1.0000
  O   O5        1.0  0.3954313926142815  0.19275391224664595  0.960342348208993  1.0000
  O   O6        1.0  0.9414837791432732  0.020564877464119613  0.024543831223119428  1.0000
  O   O7        1.0  0.021837309338004873  0.8027984412013585  0.5674986765653582  1.0000
  O   O8        1.0  0.16589274332987108  0.25936570981662754  0.5857399441856828  1.0000
  O   O9        1.0  0.3384292555650831  0.6525507809802586  0.8563227632457978  1.0000
  O   O10       1.0  0.7224006474003716  0.4964521560787869  0.24573268227960599  1.0000
data_image122
_chemical_formula_structural       Cu2C6N4O10
_chemical_formula_sum              "Cu2 C6 N4 O10"
_cell_length_a       6.950721000000001
_cell_length_b       7.113486077992492
_cell_length_c       8.6539786637408
_cell_angle_alpha    105.43300670560022
_cell_angle_beta     90.64948243757532
_cell_angle_gamma    112.19062950933201

_space_group_name_H-M_alt    "P 1"
_space_group_IT_number       1

loop_
  _space_group_symop_operation_xyz
  'x, y, z'

loop_
  _atom_site_type_symbol
  _atom_site_label
  _atom_site_symmetry_multiplicity
  _atom_site_fract_x
  _atom_site_fract_y
  _atom_site_fract_z
  _atom_site_occupancy
  Cu  Cu1       1.0  0.513117949479148  0.6903481890158826  0.2506146635738828  1.0000
  Cu  Cu2       1.0  0.39728283481022597  0.8077006689759643  0.5852666466910537  1.0000
  C   C1        1.0  0.9013304425667238  0.7693592445483801  0.8635769559736358  1.0000
  C   C2        1.0  0.3779442732839541  0.24571696621964345  0.8751371655863155  1.0000
  C   C3        1.0  0.24476307053652221  0.2837962853847129  0.4348294133341626  1.0000
  C   C4        1.0  0.9919523539683496  0.8256668087586236  0.5683697756236289  1.0000
  C   C5        1.0  0.4301318348887444  0.755438851256374  0.8053405372987485  1.0000
  C   C6        1.0  0.6465415564582557  0.5153968844400784  0.2834680481336635  1.0000
  N   N1        1.0  0.05683644233359437  0.5869837018740113  0.13120812916929392  1.0000
  N   N2        1.0  0.4765864095472333  0.9995170801775659  0.4631478338642895  1.0000
  N   N3        1.0  0.2344874756314324  0.6727991066622887  0.1994203992491721  1.0000
  N   N4        1.0  0.515913151238879  0.18094770958738682  0.4708782666426804  1.0000
  O   O1        1.0  0.8992031480697005  0.597627222809488  0.8102960261458686  1.0000
  O   O2        1.0  0.458274254491997  0.2816945672357851  0.7610130514015475  1.0000
  O   O3        1.0  0.20925590215331255  0.22039828829056707  0.29175472320382145  1.0000
  O   O4        1.0  0.9573858983172525  0.9735009402109565  0.5879289309819641  1.0000
  O   O5        1.0  0.2737292302786981  0.2178113594507176  0.9754908825169842  1.0000
  O   O6        1.0  0.904319897726068  0.9418751729977236  0.933758148232495  1.0000
  O   O7        1.0  0.964462615632779  0.6416299218965134  0.5172557192831537  1.0000
  O   O8        1.0  0.26330394530772777  0.37184601613997836  0.5793431433880172  1.0000
  O   O9        1.0  0.4020216005743474  0.8140262765527272  0.9314670188064191  1.0000
  O   O10       1.0  0.7280837631083186  0.4033209051623536  0.2891163168324394  1.0000
data_image123
_chemical_formula_structural       Cu2C6N4O10
_chemical_formula_sum              "Cu2 C6 N4 O10"
_cell_length_a       6.950721000000001
_cell_length_b       7.113486077992492
_cell_length_c       8.6539786637408
_cell_angle_alpha    105.43300670560022
_cell_angle_beta     90.64948243757532
_cell_angle_gamma    112.19062950933201

_space_group_name_H-M_alt    "P 1"
_space_group_IT_number       1

loop_
  _space_group_symop_operation_xyz
  'x, y, z'

loop_
  _atom_site_type_symbol
  _atom_site_label
  _atom_site_symmetry_multiplicity
  _atom_site_fract_x
  _atom_site_fract_y
  _atom_site_fract_z
  _atom_site_occupancy
  Cu  Cu1       1.0  0.6175261454049876  0.6860138671899353  0.29346590308888687  1.0000
  Cu  Cu2       1.0  0.3950945794477569  0.8529680349297175  0.6051585345779658  1.0000
  C   C1        1.0  0.8546168252806978  0.7445513696275896  0.859844176347211  1.0000
  C   C2        1.0  0.30828237523241453  0.30070214671495066  0.8869316470883551  1.0000
  C   C3        1.0  0.03391011733320229  0.23406218268915668  0.48025911526054177  1.0000
  C   C4        1.0  0.055878569988282445  0.7735320028890382  0.5395661776158376  1.0000
  C   C5        1.0  0.48306225395160796  0.8096726660452787  0.7983240127795654  1.0000
  C   C6        1.0  0.6694134209820504  0.4598062076457555  0.16188353401283756  1.0000
  N   N1        1.0  0.19864562292679228  0.7389596614396818  0.2015896065868752  1.0000
  N   N2        1.0  0.5175773213015752  0.17023023066373444  0.47640237947938974  1.0000
  N   N3        1.0  0.23044827021396708  0.5893989971937699  0.19488904100357418  1.0000
  N   N4        1.0  0.5029981585912373  0.0062437865791644676  0.3806505533500385  1.0000
  O   O1        1.0  0.8180915371674652  0.562462905930299  0.8298252580645762  1.0000
  O   O2        1.0  0.39442516009803585  0.1970818712015987  0.9169098861163768  1.0000
  O   O3        1.0  0.9915714474496506  0.1192663327477479  0.34710995822408575  1.0000
  O   O4        1.0  0.09392830479189707  0.9661327600181284  0.5773499108680288  1.0000
  O   O5        1.0  0.2412851741971288  0.39757632052967584  0.8422527265758757  1.0000
  O   O6        1.0  0.8845686870899643  0.9222919660700406  0.8774454936968134  1.0000
  O   O7        1.0  0.9193670723668752  0.6032752671244126  0.48773074602799293  1.0000
  O   O8        1.0  0.07857312788307191  0.3917297137043305  0.5933215665864426  1.0000
  O   O9        1.0  0.46991767420037056  0.7863010755159261  0.9191662972774073  1.0000
  O   O10       1.0  0.7532469489940694  0.34267779821870303  0.12205980524046743  1.0000
data_image124
_chemical_formula_structural       Cu2C6N4O10
_chemical_formula_sum              "Cu2 C6 N4 O10"
_cell_length_a       6.950721000000001
_cell_length_b       7.113486077992492
_cell_length_c       8.6539786637408
_cell_angle_alpha    105.43300670560022
_cell_angle_beta     90.64948243757532
_cell_angle_gamma    112.19062950933201

_space_group_name_H-M_alt    "P 1"
_space_group_IT_number       1

loop_
  _space_group_symop_operation_xyz
  'x, y, z'

loop_
  _atom_site_type_symbol
  _atom_site_label
  _atom_site_symmetry_multiplicity
  _atom_site_fract_x
  _atom_site_fract_y
  _atom_site_fract_z
  _atom_site_occupancy
  Cu  Cu1       1.0  0.6025916527161344  0.7033801517626277  0.3502553787296299  1.0000
  Cu  Cu2       1.0  0.5309319532271648  0.9707494671363276  0.615241318180388  1.0000
  C   C1        1.0  0.8639584921569391  0.6434478666506216  0.8074290669862507  1.0000
  C   C2        1.0  0.22230705848320836  0.17754703075225287  0.9209726902191124  1.0000
  C   C3        1.0  0.9161173059054573  0.1339843632527129  0.3801872858218496  1.0000
  C   C4        1.0  0.9885156599331486  0.802556148375041  0.5418055022442065  1.0000
  C   C5        1.0  0.488522437785677  0.9021999147330064  0.8037453578607439  1.0000
  C   C6        1.0  0.7698896271171303  0.54380119674613  0.15278560860800403  1.0000
  N   N1        1.0  0.13723088518202434  0.7013477044488811  0.21393658501135526  1.0000
  N   N2        1.0  0.5006903053813183  0.20227731966504026  0.38931526640050484  1.0000
  N   N3        1.0  0.2317728118455668  0.6045879781818524  0.2346097080469982  1.0000
  N   N4        1.0  0.5787227152442471  0.18729261726962054  0.4927035876289397  1.0000
  O   O1        1.0  0.8031648962133919  0.45927552662817095  0.7306281961340461  1.0000
  O   O2        1.0  0.3444943048127774  0.11436567271489873  0.9402408862577242  1.0000
  O   O3        1.0  0.8758527515872232  0.9682352740010964  0.2635291207915573  1.0000
  O   O4        1.0  0.14856380061028718  0.9593961653917422  0.5805297265318755  1.0000
  O   O5        1.0  0.12818383485437895  0.26151062559419835  0.8684507011721679  1.0000
  O   O6        1.0  0.9044246944755755  0.7919246479873421  0.9248606470750114  1.0000
  O   O7        1.0  0.858392275582301  0.6339065367843137  0.4921622664789267  1.0000
  O   O8        1.0  0.9895288867460763  0.2520128580659995  0.5106726998124909  1.0000
  O   O9        1.0  0.4765096907784974  0.8259251082179052  0.9070309484307402  1.0000
  O   O10       1.0  0.752001641515337  0.40660327350151027  0.0463780711481752  1.0000
data_image125
_chemical_formula_structural       Cu2C6N4O10
_chemical_formula_sum              "Cu2 C6 N4 O10"
_cell_length_a       6.950721000000001
_cell_length_b       7.113486077992492
_cell_length_c       8.6539786637408
_cell_angle_alpha    105.43300670560022
_cell_angle_beta     90.64948243757532
_cell_angle_gamma    112.19062950933201

_space_group_name_H-M_alt    "P 1"
_space_group_IT_number       1

loop_
  _space_group_symop_operation_xyz
  'x, y, z'

loop_
  _atom_site_type_symbol
  _atom_site_label
  _atom_site_symmetry_multiplicity
  _atom_site_fract_x
  _atom_site_fract_y
  _atom_site_fract_z
  _atom_site_occupancy
  Cu  Cu1       1.0  0.6138522730665685  0.7092728705747973  0.3338147023987565  1.0000
  Cu  Cu2       1.0  0.639384994949271  0.10598242609924163  0.6308849772411598  1.0000
  C   C1        1.0  0.813075445870223  0.4884823006924567  0.7834697425275982  1.0000
  C   C2        1.0  0.23802791829680656  0.20996495811018923  0.045286545886492835  1.0000
  C   C3        1.0  0.8592390055203608  0.005559970984071905  0.2611609809469958  1.0000
  C   C4        1.0  0.017742052597181424  0.8293075123747713  0.6303816324326561  1.0000
  C   C5        1.0  0.5344867676446137  0.901851496726679  0.7095355186538945  1.0000
  C   C6        1.0  0.6164736982290749  0.41953883801658093  0.1989266407571934  1.0000
  N   N1        1.0  0.2725221008733794  0.6112739330586551  0.12215051806348987  1.0000
  N   N2        1.0  0.3253313329433052  0.25902665241843614  0.45902605326192686  1.0000
  N   N3        1.0  0.3431010912849265  0.6627825270085435  0.25483214378026253  1.0000
  N   N4        1.0  0.3828782505444577  0.13893651530611262  0.4624733225153077  1.0000
  O   O1        1.0  0.8787821324175167  0.417003416272111  0.6538235539148571  1.0000
  O   O2        1.0  0.3059552573115788  0.1875897466661931  0.15656030820417688  1.0000
  O   O3        1.0  0.7472691106224445  0.9627241952668415  0.1381300641697666  1.0000
  O   O4        1.0  0.18982304961357221  0.9166981037287771  0.6688523748100831  1.0000
  O   O5        1.0  0.13615817506010067  0.16019194311554386  0.9270276805093582  1.0000
  O   O6        1.0  0.8428111795820198  0.6560181119176981  0.8888540186654654  1.0000
  O   O7        1.0  0.8369321317316707  0.7476018684880377  0.5591110569577593  1.0000
  O   O8        1.0  0.9473693289165458  0.15856906620203048  0.38461757349691394  1.0000
  O   O9        1.0  0.46063810183842235  0.826347497315846  0.8107783756098352  1.0000
  O   O10       1.0  0.699217236011129  0.36561068330496843  0.0867670674034836  1.0000
data_image126
_chemical_formula_structural       Cu2C6N4O10
_chemical_formula_sum              "Cu2 C6 N4 O10"
_cell_length_a       6.950721000000001
_cell_length_b       7.113486077992492
_cell_length_c       8.6539786637408
_cell_angle_alpha    105.43300670560022
_cell_angle_beta     90.64948243757532
_cell_angle_gamma    112.19062950933201

_space_group_name_H-M_alt    "P 1"
_space_group_IT_number       1

loop_
  _space_group_symop_operation_xyz
  'x, y, z'

loop_
  _atom_site_type_symbol
  _atom_site_label
  _atom_site_symmetry_multiplicity
  _atom_site_fract_x
  _atom_site_fract_y
  _atom_site_fract_z
  _atom_site_occupancy
  Cu  Cu1       1.0  0.6197853903189365  0.655464228979735  0.32130075657764745  1.0000
  Cu  Cu2       1.0  0.7080972796622195  0.19398903699348619  0.6522951971923456  1.0000
  C   C1        1.0  0.9059107590785522  0.4653300134401966  0.803450974324886  1.0000
  C   C2        1.0  0.16424731229753098  0.13264078576510174  0.023688185600970302  1.0000
  C   C3        1.0  0.672305050605432  0.9388190136998  0.2319860197345518  1.0000
  C   C4        1.0  0.928952958046105  0.7565641038560049  0.5562476998210487  1.0000
  C   C5        1.0  0.5045697069373054  0.0597958559826946  0.7817497697835383  1.0000
  C   C6        1.0  0.792896589076339  0.5340062003573312  0.21201561943796812  1.0000
  N   N1        1.0  0.20299500720784427  0.6938359675137866  0.24841277100481718  1.0000
  N   N2        1.0  0.49250919327215337  0.3522703109556491  0.5498328796224763  1.0000
  N   N3        1.0  0.3091175049142313  0.6579876960558788  0.16206565688137275  1.0000
  N   N4        1.0  0.3953803511850088  0.23366260963210284  0.4437194473538553  1.0000
  O   O1        1.0  0.9974489454924514  0.3843542551530609  0.6912425830525752  1.0000
  O   O2        1.0  0.3116019647152059  0.1267599278833207  0.06900511893823857  1.0000
  O   O3        1.0  0.6174397948667691  0.9308688843043815  0.10564818553434918  1.0000
  O   O4        1.0  0.11526518750771197  0.8627299017390995  0.5373417241042043  1.0000
  O   O5        1.0  0.001679786548309967  0.13405524582587236  0.9768786802412788  1.0000
  O   O6        1.0  0.8767354003745412  0.6202700376961348  0.8731335332132492  1.0000
  O   O7        1.0  0.7615956523050254  0.6483005548153984  0.5732209038453795  1.0000
  O   O8        1.0  0.7344173279509356  0.00912988895306821  0.3810250074920296  1.0000
  O   O9        1.0  0.49626491145685386  0.891223205804679  0.7343703728022982  1.0000
  O   O10       1.0  0.8508662372984392  0.3992296912561433  0.22469572867198387  1.0000
data_image127
_chemical_formula_structural       Cu2C6N4O10
_chemical_formula_sum              "Cu2 C6 N4 O10"
_cell_length_a       6.950721000000001
_cell_length_b       7.113486077992492
_cell_length_c       8.6539786637408
_cell_angle_alpha    105.43300670560022
_cell_angle_beta     90.64948243757532
_cell_angle_gamma    112.19062950933201

_space_group_name_H-M_alt    "P 1"
_space_group_IT_number       1

loop_
  _space_group_symop_operation_xyz
  'x, y, z'

loop_
  _atom_site_type_symbol
  _atom_site_label
  _atom_site_symmetry_multiplicity
  _atom_site_fract_x
  _atom_site_fract_y
  _atom_site_fract_z
  _atom_site_occupancy
  Cu  Cu1       1.0  0.5735211826427211  0.6151870747107456  0.2806431316214361  1.0000
  Cu  Cu2       1.0  0.730745767346565  0.23657752963939768  0.6769510077608882  1.0000
  C   C1        1.0  0.030385993500388123  0.5415008129110898  0.7972425470381233  1.0000
  C   C2        1.0  0.0923271721622484  0.0858731625038669  0.9462618393131537  1.0000
  C   C3        1.0  0.654739756458738  0.8688774268536412  0.20448649796703722  1.0000
  C   C4        1.0  0.059292279566204975  0.8524038584321336  0.5740795606290283  1.0000
  C   C5        1.0  0.5489548667256088  0.9770844996609502  0.6864148374469181  1.0000
  C   C6        1.0  0.7554377046906199  0.47065051310030864  0.31119123112054836  1.0000
  N   N1        1.0  0.1361577490169406  0.6127603281294234  0.14458458902688776  1.0000
  N   N2        1.0  0.47556791508564944  0.29994241478849926  0.6288923841878897  1.0000
  N   N3        1.0  0.009731039749277762  0.6711110797821539  0.1789702294100355  1.0000
  N   N4        1.0  0.4266626929516122  0.29960249692325247  0.4989929791529583  1.0000
  O   O1        1.0  0.11788852727576343  0.42742452376448115  0.7455327251918445  1.0000
  O   O2        1.0  0.24738418994912134  0.10488573034047355  0.018770678104706562  1.0000
  O   O3        1.0  0.7805367692880197  0.9153362292888421  0.11611867103818174  1.0000
  O   O4        1.0  0.22970564604204968  0.9135779370756874  0.5230046864958886  1.0000
  O   O5        1.0  0.9474505969671914  0.08896721991382361  0.8783867046867944  1.0000
  O   O6        1.0  0.9768082134332458  0.6755527107837397  0.871320092994056  1.0000
  O   O7        1.0  0.8920254230491882  0.7819420433434932  0.6154561447977078  1.0000
  O   O8        1.0  0.5865481511610735  0.9496481252650648  0.33423297299298516  1.0000
  O   O9        1.0  0.46781355672568575  0.8974750449153679  0.787066309079308  1.0000
  O   O10       1.0  0.7882143604913535  0.3579408358970281  0.3639621969219217  1.0000
data_image128
_chemical_formula_structural       Cu2C6N4O10
_chemical_formula_sum              "Cu2 C6 N4 O10"
_cell_length_a       6.950721000000001
_cell_length_b       7.113486077992492
_cell_length_c       8.6539786637408
_cell_angle_alpha    105.43300670560022
_cell_angle_beta     90.64948243757532
_cell_angle_gamma    112.19062950933201

_space_group_name_H-M_alt    "P 1"
_space_group_IT_number       1

loop_
  _space_group_symop_operation_xyz
  'x, y, z'

loop_
  _atom_site_type_symbol
  _atom_site_label
  _atom_site_symmetry_multiplicity
  _atom_site_fract_x
  _atom_site_fract_y
  _atom_site_fract_z
  _atom_site_occupancy
  Cu  Cu1       1.0  0.6008551427441262  0.6275752825944839  0.29468401573315955  1.0000
  Cu  Cu2       1.0  0.6685423407301594  0.2153198747301439  0.723097923549537  1.0000
  C   C1        1.0  0.05274468254164514  0.570880067810137  0.7618898973654318  1.0000
  C   C2        1.0  0.11114077436075674  0.19627417970613914  0.9909905028776771  1.0000
  C   C3        1.0  0.6940769149639916  0.9010119363090201  0.2070597323318546  1.0000
  C   C4        1.0  0.06338329768814344  0.8443001485915811  0.5504849445295696  1.0000
  C   C5        1.0  0.5982063975547631  0.9421768934086341  0.7372313783349144  1.0000
  C   C6        1.0  0.6853054226670331  0.40893703432216477  0.2923127415424865  1.0000
  N   N1        1.0  0.0541465407596428  0.6497759227696512  0.15456028040666725  1.0000
  N   N2        1.0  0.4850361258142808  0.3555916234873706  0.5866727396532252  1.0000
  N   N3        1.0  0.170921670027212  0.5813493429023092  0.11544847049369067  1.0000
  N   N4        1.0  0.3133730202694792  0.3065881614771966  0.5479738753011406  1.0000
  O   O1        1.0  0.9454857901034912  0.40509105457253664  0.6746963756294875  1.0000
  O   O2        1.0  0.2843068020861474  0.19711513840565598  0.037146457358557816  1.0000
  O   O3        1.0  0.847994474293503  0.8952422067083767  0.18596682114167806  1.0000
  O   O4        1.0  0.25739688784181025  0.9138930381424415  0.5665571636007061  1.0000
  O   O5        1.0  0.9492967521133866  0.10241220445942689  0.9173945558143285  1.0000
  O   O6        1.0  0.15416682630443204  0.769505456389487  0.8340331890096926  1.0000
  O   O7        1.0  0.8752692745109661  0.765252376779058  0.5608049839370539  1.0000
  O   O8        1.0  0.5264386149644489  0.9154934272863757  0.17915419121091825  1.0000
  O   O9        1.0  0.5174624438310491  0.7611529605610383  0.7193805629163719  1.0000
  O   O10       1.0  0.7879753816373882  0.3652722429775688  0.3667794531056542  1.0000
data_image129
_chemical_formula_structural       Cu2C6N4O10
_chemical_formula_sum              "Cu2 C6 N4 O10"
_cell_length_a       6.950721000000001
_cell_length_b       7.113486077992492
_cell_length_c       8.6539786637408
_cell_angle_alpha    105.43300670560022
_cell_angle_beta     90.64948243757532
_cell_angle_gamma    112.19062950933201

_space_group_name_H-M_alt    "P 1"
_space_group_IT_number       1

loop_
  _space_group_symop_operation_xyz
  'x, y, z'

loop_
  _atom_site_type_symbol
  _atom_site_label
  _atom_site_symmetry_multiplicity
  _atom_site_fract_x
  _atom_site_fract_y
  _atom_site_fract_z
  _atom_site_occupancy
  Cu  Cu1       1.0  0.5638289161043144  0.6379094943403312  0.27625053684288187  1.0000
  Cu  Cu2       1.0  0.6743266595980908  0.1761539182475176  0.6869851517346809  1.0000
  C   C1        1.0  0.016336398583394186  0.6491797363125276  0.8556029131549747  1.0000
  C   C2        1.0  0.19615942521046892  0.14441650623303004  0.02812779106273844  1.0000
  C   C3        1.0  0.7120279023667067  0.94496676978821  0.1895346946968388  1.0000
  C   C4        1.0  0.05267366282109931  0.8634073618125331  0.5032757030060554  1.0000
  C   C5        1.0  0.6598716189326752  0.9696651949141563  0.7804181763528206  1.0000
  C   C6        1.0  0.6468827760780641  0.45472231253025397  0.36224638061710923  1.0000
  N   N1        1.0  0.15997235752596542  0.5374893238162541  0.13681306446936126  1.0000
  N   N2        1.0  0.3629587151968351  0.2698309158075851  0.5851961879547457  1.0000
  N   N3        1.0  0.1180798121694871  0.5069532703655097  0.005588050530131561  1.0000
  N   N4        1.0  0.3956324353097129  0.1979991932308489  0.462594326301292  1.0000
  O   O1        1.0  0.8393013070001392  0.5304936396092887  0.8379826893443196  1.0000
  O   O2        1.0  0.32529129090972836  0.26520270590926787  0.13196223610637725  1.0000
  O   O3        1.0  0.8867519400629992  0.041663012177493686  0.24565480875248713  1.0000
  O   O4        1.0  0.031227405893676563  0.6785705136719102  0.4359021509905097  1.0000
  O   O5        1.0  0.011547179298325596  0.047918834334666593  0.931867022404821  1.0000
  O   O6        1.0  0.1844247924678669  0.7566197380306969  0.8141652397845569  1.0000
  O   O7        1.0  0.010638228827408724  0.01244662785649897  0.5791691279226909  1.0000
  O   O8        1.0  0.526000593644782  0.880420248642316  0.19302179465587121  1.0000
  O   O9        1.0  0.6128614688160481  0.7951221128727799  0.8187663863998327  1.0000
  O   O10       1.0  0.7751369759056864  0.40883143224410406  0.3226216129461074  1.0000
data_image130
_chemical_formula_structural       Cu2C6N4O10
_chemical_formula_sum              "Cu2 C6 N4 O10"
_cell_length_a       6.950721000000001
_cell_length_b       7.113486077992492
_cell_length_c       8.6539786637408
_cell_angle_alpha    105.43300670560022
_cell_angle_beta     90.64948243757532
_cell_angle_gamma    112.19062950933201

_space_group_name_H-M_alt    "P 1"
_space_group_IT_number       1

loop_
  _space_group_symop_operation_xyz
  'x, y, z'

loop_
  _atom_site_type_symbol
  _atom_site_label
  _atom_site_symmetry_multiplicity
  _atom_site_fract_x
  _atom_site_fract_y
  _atom_site_fract_z
  _atom_site_occupancy
  Cu  Cu1       1.0  0.5709653192334647  0.6431592838497227  0.24586842254340469  1.0000
  Cu  Cu2       1.0  0.7029178155273423  0.2124675377881808  0.7259888527802757  1.0000
  C   C1        1.0  0.991798100062403  0.5367194601067727  0.767532922945017  1.0000
  C   C2        1.0  0.16394045720759148  0.051768381538420005  0.013199830658683798  1.0000
  C   C3        1.0  0.6865611687372272  0.9684184342802049  0.2599295334733578  1.0000
  C   C4        1.0  0.013330158113250334  0.846751531475433  0.5712859510901538  1.0000
  C   C5        1.0  0.6058181839940142  0.051503777151296365  0.8613324217487682  1.0000
  C   C6        1.0  0.6417022488425663  0.41623929075531607  0.2107184556232135  1.0000
  N   N1        1.0  0.0403051684635545  0.5340188439085215  0.0356930390511494  1.0000
  N   N2        1.0  0.48252125344871577  0.3278420463185068  0.4840560825429969  1.0000
  N   N3        1.0  0.16730182143211442  0.491893317077505  0.07712247269928985  1.0000
  N   N4        1.0  0.37129476801156924  0.24798887261714375  0.5680533299530331  1.0000
  O   O1        1.0  0.8279601523921202  0.5709329316513042  0.7486517931697387  1.0000
  O   O2        1.0  0.2643400172409169  0.08023512274683497  0.14447699784205925  1.0000
  O   O3        1.0  0.8699671092276222  0.0684940644695553  0.3079821106348869  1.0000
  O   O4        1.0  0.07247422105722023  0.7008509045825744  0.5210419379286971  1.0000
  O   O5        1.0  0.07755235362049336  0.046668458483400954  0.8978600242236568  1.0000
  O   O6        1.0  0.17570581740695715  0.5817027983335485  0.7674126214324515  1.0000
  O   O7        1.0  0.9702660251548799  0.9941347989963574  0.591872161575034  1.0000
  O   O8        1.0  0.5233700509327763  0.9214333116611333  0.20378242349078501  1.0000
  O   O9        1.0  0.5895739127876776  0.9032395834989659  0.9134372839459006  1.0000
  O   O10       1.0  0.8031099507865439  0.42087015877009737  0.22813427141628229  1.0000
data_image131
_chemical_formula_structural       Cu2C6N4O10
_chemical_formula_sum              "Cu2 C6 N4 O10"
_cell_length_a       6.950721000000001
_cell_length_b       7.113486077992492
_cell_length_c       8.6539786637408
_cell_angle_alpha    105.43300670560022
_cell_angle_beta     90.64948243757532
_cell_angle_gamma    112.19062950933201

_space_group_name_H-M_alt    "P 1"
_space_group_IT_number       1

loop_
  _space_group_symop_operation_xyz
  'x, y, z'

loop_
  _atom_site_type_symbol
  _atom_site_label
  _atom_site_symmetry_multiplicity
  _atom_site_fract_x
  _atom_site_fract_y
  _atom_site_fract_z
  _atom_site_occupancy
  Cu  Cu1       1.0  0.5921438915703952  0.6389830746073235  0.13562326415692763  1.0000
  Cu  Cu2       1.0  0.6464025835146321  0.27508047458829066  0.7723327850820348  1.0000
  C   C1        1.0  0.9995746958641945  0.4633653387084016  0.7776423383281997  1.0000
  C   C2        1.0  0.1405994007860022  0.020478458301008473  0.09443394816249895  1.0000
  C   C3        1.0  0.7789075600389904  0.11890925495925164  0.3089372600295499  1.0000
  C   C4        1.0  0.9986538903018674  0.7861575009967672  0.5218275615864735  1.0000
  C   C5        1.0  0.5084679751405071  0.9700595918785463  0.7537231782787677  1.0000
  C   C6        1.0  0.7782286589734315  0.6213596353008267  0.2539234206750447  1.0000
  N   N1        1.0  0.2839750647030854  0.6151503996596356  0.16320306843229804  1.0000
  N   N2        1.0  0.45066305385474814  0.28847684545468644  0.5923104369651648  1.0000
  N   N3        1.0  0.1814788912711341  0.43845513645887374  0.08074884130354198  1.0000
  N   N4        1.0  0.36222695716373376  0.23756180504607816  0.4714706237576215  1.0000
  O   O1        1.0  0.9178892349614908  0.576843818128993  0.8389038339713117  1.0000
  O   O2        1.0  0.1423470023888795  0.9734022416161323  0.21733652326382247  1.0000
  O   O3        1.0  0.9484206607244775  0.15786310558424455  0.3569034325934761  1.0000
  O   O4        1.0  0.11158138631908043  0.7179109825213295  0.4809732296781688  1.0000
  O   O5        1.0  0.14339609720328023  0.041494565099698955  0.9677268444640562  1.0000
  O   O6        1.0  0.14233533328822243  0.4016549518527435  0.7632052054693271  1.0000
  O   O7        1.0  0.8465686019280304  0.8344328825603564  0.5515240371193255  1.0000
  O   O8        1.0  0.5886136144944263  0.05148799791844261  0.23939550007664057  1.0000
  O   O9        1.0  0.49000560186540226  0.80629980892564  0.7830678947634939  1.0000
  O   O10       1.0  0.7197988012133595  0.4405994927761578  0.24000223148803718  1.0000
data_image132
_chemical_formula_structural       Cu2C6N4O10
_chemical_formula_sum              "Cu2 C6 N4 O10"
_cell_length_a       6.950721000000001
_cell_length_b       7.113486077992492
_cell_length_c       8.6539786637408
_cell_angle_alpha    105.43300670560022
_cell_angle_beta     90.64948243757532
_cell_angle_gamma    112.19062950933201

_space_group_name_H-M_alt    "P 1"
_space_group_IT_number       1

loop_
  _space_group_symop_operation_xyz
  'x, y, z'

loop_
  _atom_site_type_symbol
  _atom_site_label
  _atom_site_symmetry_multiplicity
  _atom_site_fract_x
  _atom_site_fract_y
  _atom_site_fract_z
  _atom_site_occupancy
  Cu  Cu1       1.0  0.6109856398864435  0.6097338974655551  0.9747945476557082  1.0000
  Cu  Cu2       1.0  0.5921496107753038  0.23925472456906494  0.7647529469325661  1.0000
  C   C1        1.0  0.9485250091225148  0.3929575378817339  0.8281191166163677  1.0000
  C   C2        1.0  0.21719367287450422  0.0012937504869081629  0.12359302913220227  1.0000
  C   C3        1.0  0.709702878847525  0.1204252468613527  0.2829333707659556  1.0000
  C   C4        1.0  0.03465398419205923  0.7997608770250266  0.6487886355343935  1.0000
  C   C5        1.0  0.6069898329858436  0.9879609043297032  0.8153130502479817  1.0000
  C   C6        1.0  0.694040729873817  0.5557392334684167  0.1672799952667515  1.0000
  N   N1        1.0  0.2679852171523966  0.5518588517132667  0.08179486349351484  1.0000
  N   N2        1.0  0.3601209552093816  0.32404405346168375  0.687384481722636  1.0000
  N   N3        1.0  0.13557315420095434  0.4513868573483725  0.14328896776502953  1.0000
  N   N4        1.0  0.4302324217456789  0.3983377736369791  0.5961461367133899  1.0000
  O   O1        1.0  0.04630310379339378  0.5895142385573591  0.8395538670640983  1.0000
  O   O2        1.0  0.08481121119829983  0.8885456655173674  0.17454847484049396  1.0000
  O   O3        1.0  0.8652205580203814  0.2661203420524092  0.282196423057296  1.0000
  O   O4        1.0  0.19525976808510603  0.8060350560715368  0.6179093682133813  1.0000
  O   O5        1.0  0.28413182497053524  0.10118688288721644  0.03689688638927158  1.0000
  O   O6        1.0  0.004818773050707927  0.21939014622593278  0.7545555384132878  1.0000
  O   O7        1.0  0.8606629758539731  0.7997348213765809  0.6624610206045305  1.0000
  O   O8        1.0  0.5508207491851544  0.9670363970679312  0.23013241666539686  1.0000
  O   O9        1.0  0.583318828936209  0.9010467488076813  0.9201855943889163  1.0000
  O   O10       1.0  0.7858563115813685  0.6863973604232025  0.2939274699587565  1.0000
data_image133
_chemical_formula_structural       Cu2C6N4O10
_chemical_formula_sum              "Cu2 C6 N4 O10"
_cell_length_a       6.950721000000001
_cell_length_b       7.113486077992492
_cell_length_c       8.6539786637408
_cell_angle_alpha    105.43300670560022
_cell_angle_beta     90.64948243757532
_cell_angle_gamma    112.19062950933201

_space_group_name_H-M_alt    "P 1"
_space_group_IT_number       1

loop_
  _space_group_symop_operation_xyz
  'x, y, z'

loop_
  _atom_site_type_symbol
  _atom_site_label
  _atom_site_symmetry_multiplicity
  _atom_site_fract_x
  _atom_site_fract_y
  _atom_site_fract_z
  _atom_site_occupancy
  Cu  Cu1       1.0  0.7210763381375946  0.5613370260915171  0.9074234536938692  1.0000
  Cu  Cu2       1.0  0.5037692167671388  0.1492713396927219  0.7853657450497779  1.0000
  C   C1        1.0  0.0015206492373165664  0.44977739255780286  0.8138488595506296  1.0000
  C   C2        1.0  0.22340128982308294  0.15034996010890955  0.1387351137057884  1.0000
  C   C3        1.0  0.6689700163998407  0.08965407255481561  0.2010877095277842  1.0000
  C   C4        1.0  0.9784611993400223  0.7209833662481402  0.6101541221831701  1.0000
  C   C5        1.0  0.6719181095097878  0.06069041472547446  0.9255700978984012  1.0000
  C   C6        1.0  0.6748454897236101  0.6650315255687121  0.11059908641435935  1.0000
  N   N1        1.0  0.19567615990963  0.5155635750743814  0.19689221293571135  1.0000
  N   N2        1.0  0.4861497471727202  0.41802903688049486  0.7241051381490077  1.0000
  N   N3        1.0  0.05789682798898931  0.5607456409345553  0.21697039418161213  1.0000
  N   N4        1.0  0.308796446621564  0.36496057945529214  0.7198005137495697  1.0000
  O   O1        1.0  0.11373746543379529  0.6113566313609535  0.8890467773268733  1.0000
  O   O2        1.0  0.13742659003970395  0.01127350062875121  0.18632956179914673  1.0000
  O   O3        1.0  0.7886126997062826  0.2821977975106684  0.24133675315899783  1.0000
  O   O4        1.0  0.13733061204034458  0.8550044170188615  0.6434191833234527  1.0000
  O   O5        1.0  0.3507296939956881  0.2779572898889302  0.09324987327427592  1.0000
  O   O6        1.0  0.9214088107725995  0.28152803831193524  0.7113254416531666  1.0000
  O   O7        1.0  0.8257000055381777  0.6044949037309433  0.6615898667664513  1.0000
  O   O8        1.0  0.5582032306100846  0.9148391625991104  0.18601744795153397  1.0000
  O   O9        1.0  0.7861670572356594  0.9776753524631799  0.8923549100807062  1.0000
  O   O10       1.0  0.673326607573013  0.6312906440628037  0.23627220819085293  1.0000
data_image134
_chemical_formula_structural       Cu2C6N4O10
_chemical_formula_sum              "Cu2 C6 N4 O10"
_cell_length_a       6.950721000000001
_cell_length_b       7.113486077992492
_cell_length_c       8.6539786637408
_cell_angle_alpha    105.43300670560022
_cell_angle_beta     90.64948243757532
_cell_angle_gamma    112.19062950933201

_space_group_name_H-M_alt    "P 1"
_space_group_IT_number       1

loop_
  _space_group_symop_operation_xyz
  'x, y, z'

loop_
  _atom_site_type_symbol
  _atom_site_label
  _atom_site_symmetry_multiplicity
  _atom_site_fract_x
  _atom_site_fract_y
  _atom_site_fract_z
  _atom_site_occupancy
  Cu  Cu1       1.0  0.721469053958552  0.529006208018211  0.8772244853535632  1.0000
  Cu  Cu2       1.0  0.49084460949036085  0.1311780306825802  0.803851089339199  1.0000
  C   C1        1.0  0.1641282564338277  0.41546695579107723  0.773322054000412  1.0000
  C   C2        1.0  0.17149470123151284  0.17879969458798683  0.06367873096539944  1.0000
  C   C3        1.0  0.47446950432135415  0.09295114406568517  0.27344791605247654  1.0000
  C   C4        1.0  0.9962184160594614  0.7497949391612175  0.6816790124311086  1.0000
  C   C5        1.0  0.7421448906432128  0.12316293067602237  0.8615615494185629  1.0000
  C   C6        1.0  0.7103522422618039  0.6275776879741826  0.10366872025776783  1.0000
  N   N1        1.0  0.16699238358660703  0.5940055783348744  0.4646068439864184  1.0000
  N   N2        1.0  0.4579779408139324  0.32983204399038213  0.6421254343925048  1.0000
  N   N3        1.0  0.1455523893550084  0.6388809509395307  0.3540718890024679  1.0000
  N   N4        1.0  0.3850968079505541  0.2050591481171118  0.5291548087668023  1.0000
  O   O1        1.0  0.30008639656480046  0.5891264085685909  0.8024630542985982  1.0000
  O   O2        1.0  0.12808310300714923  0.052822352940040895  0.13880406981149807  1.0000
  O   O3        1.0  0.6005826751407444  0.2963360112168616  0.32766524014260734  1.0000
  O   O4        1.0  0.1491984999079048  0.9101365156775647  0.7021257677476891  1.0000
  O   O5        1.0  0.18407355277460452  0.3083231584399402  0.9955574135448458  1.0000
  O   O6        1.0  0.03458182589053511  0.25515850465698625  0.7075743031354245  1.0000
  O   O7        1.0  0.8615759528725851  0.5738219469060448  0.6502153844880614  1.0000
  O   O8        1.0  0.43397803388810996  0.9193167011382224  0.18455776674582958  1.0000
  O   O9        1.0  0.8290129784990847  0.0807044745134817  0.9578285284762758  1.0000
  O   O10       1.0  0.6953157167767601  0.7006457999854725  0.23855641491449084  1.0000
data_image135
_chemical_formula_structural       Cu2C6N4O10
_chemical_formula_sum              "Cu2 C6 N4 O10"
_cell_length_a       6.950721000000001
_cell_length_b       7.113486077992492
_cell_length_c       8.6539786637408
_cell_angle_alpha    105.43300670560022
_cell_angle_beta     90.64948243757532
_cell_angle_gamma    112.19062950933201

_space_group_name_H-M_alt    "P 1"
_space_group_IT_number       1

loop_
  _space_group_symop_operation_xyz
  'x, y, z'

loop_
  _atom_site_type_symbol
  _atom_site_label
  _atom_site_symmetry_multiplicity
  _atom_site_fract_x
  _atom_site_fract_y
  _atom_site_fract_z
  _atom_site_occupancy
  Cu  Cu1       1.0  0.677012471176192  0.4762049040224012  0.871210853345398  1.0000
  Cu  Cu2       1.0  0.4658367794516196  0.13427201430173857  0.8080891335308701  1.0000
  C   C1        1.0  0.1659598500071819  0.4787333287120954  0.7224923952109065  1.0000
  C   C2        1.0  0.22321696933203386  0.23867179544429118  0.1459034097940759  1.0000
  C   C3        1.0  0.6078010682649594  0.15803127443392007  0.20993263408587315  1.0000
  C   C4        1.0  0.04242267769136698  0.8408516912542068  0.775058472994502  1.0000
  C   C5        1.0  0.6406581108439582  0.9971593604047525  0.846673023462151  1.0000
  C   C6        1.0  0.7197635542891274  0.6897368042436604  0.09682677121271148  1.0000
  N   N1        1.0  0.21311979270178105  0.6203893136795368  0.38010084946329026  1.0000
  N   N2        1.0  0.33033179801503476  0.08520999649298577  0.5235354021021441  1.0000
  N   N3        1.0  0.147104472115935  0.485066619944349  0.4300580206220166  1.0000
  N   N4        1.0  0.16710608940514016  0.04712424546082561  0.4819800876191208  1.0000
  O   O1        1.0  0.3151969926315703  0.6300626548223701  0.7246626867420857  1.0000
  O   O2        1.0  0.08656962403700512  0.05311997125585011  0.11165374492493352  1.0000
  O   O3        1.0  0.6172478851615837  0.3045549512536987  0.291646441551368  1.0000
  O   O4        1.0  0.17236428764774314  0.024658936348890492  0.836297184855408  1.0000
  O   O5        1.0  0.3121597965261141  0.42513802422823543  0.15839972544612735  1.0000
  O   O6        1.0  0.02982375863132073  0.3267162639942969  0.7285219084201233  1.0000
  O   O7        1.0  0.895926870498688  0.6882259579923518  0.7807809529587935  1.0000
  O   O8        1.0  0.5914736024597183  0.9722681148156602  0.14606366518916736  1.0000
  O   O9        1.0  0.7983167149220229  0.9760787327344971  0.8480668100509415  1.0000
  O   O10       1.0  0.8317974299310338  0.7885331446369621  0.2125028752000819  1.0000
data_image136
_chemical_formula_structural       Cu2C6N4O10
_chemical_formula_sum              "Cu2 C6 N4 O10"
_cell_length_a       6.950721000000001
_cell_length_b       7.113486077992492
_cell_length_c       8.6539786637408
_cell_angle_alpha    105.43300670560022
_cell_angle_beta     90.64948243757532
_cell_angle_gamma    112.19062950933201

_space_group_name_H-M_alt    "P 1"
_space_group_IT_number       1

loop_
  _space_group_symop_operation_xyz
  'x, y, z'

loop_
  _atom_site_type_symbol
  _atom_site_label
  _atom_site_symmetry_multiplicity
  _atom_site_fract_x
  _atom_site_fract_y
  _atom_site_fract_z
  _atom_site_occupancy
  Cu  Cu1       1.0  0.7433090709846886  0.4954640123402928  0.8918138521056495  1.0000
  Cu  Cu2       1.0  0.4197195606361453  0.09599360365046104  0.7867790602750023  1.0000
  C   C1        1.0  0.2638713972006044  0.4885019680675021  0.7753684826296562  1.0000
  C   C2        1.0  0.17464767796568068  0.3347511586903602  0.1150467640033388  1.0000
  C   C3        1.0  0.6336306562539182  0.06419255175840166  0.23482335328877546  1.0000
  C   C4        1.0  0.9010152447362448  0.7504379978893545  0.7803744885577198  1.0000
  C   C5        1.0  0.6251128317623131  0.035950249803396624  0.7553119695157547  1.0000
  C   C6        1.0  0.734911679313242  0.6629490090017811  0.14559700515439306  1.0000
  N   N1        1.0  0.15759827339490307  0.6146372931856222  0.5238053278938526  1.0000
  N   N2        1.0  0.29563334409661357  0.1759507575753756  0.49357034605671063  1.0000
  N   N3        1.0  0.23556575406863892  0.6733097717633946  0.4201731083613003  1.0000
  N   N4        1.0  0.18274223436121206  0.04019905466138951  0.5130572792065754  1.0000
  O   O1        1.0  0.45957125254761527  0.5742367363220418  0.7763096435502379  1.0000
  O   O2        1.0  0.09392202967938898  0.23872423871648318  0.21129512479421275  1.0000
  O   O3        1.0  0.6875209903882517  0.2045401773917257  0.35310764734469136  1.0000
  O   O4        1.0  0.040760817221515255  0.8875148561844233  0.8931536262307477  1.0000
  O   O5        1.0  0.2738010703755965  0.4003497233507711  0.01858285318127262  1.0000
  O   O6        1.0  0.0717628563544241  0.4329830825664621  0.7639368697955089  1.0000
  O   O7        1.0  0.8049059083948158  0.6714679238328589  0.6596020500968176  1.0000
  O   O8        1.0  0.5813467892168498  0.9400146880186377  0.0955926039989694  1.0000
  O   O9        1.0  0.7534518104310992  0.9987645098748917  0.6879941197853993  1.0000
  O   O10       1.0  0.8437993426476228  0.7301487227759902  0.25801520957102153  1.0000
data_image137
_chemical_formula_structural       Cu2C6N4O10
_chemical_formula_sum              "Cu2 C6 N4 O10"
_cell_length_a       6.950721000000001
_cell_length_b       7.113486077992492
_cell_length_c       8.6539786637408
_cell_angle_alpha    105.43300670560022
_cell_angle_beta     90.64948243757532
_cell_angle_gamma    112.19062950933201

_space_group_name_H-M_alt    "P 1"
_space_group_IT_number       1

loop_
  _space_group_symop_operation_xyz
  'x, y, z'

loop_
  _atom_site_type_symbol
  _atom_site_label
  _atom_site_symmetry_multiplicity
  _atom_site_fract_x
  _atom_site_fract_y
  _atom_site_fract_z
  _atom_site_occupancy
  Cu  Cu1       1.0  0.7805823158085292  0.5666617136025985  0.9631638034275961  1.0000
  Cu  Cu2       1.0  0.429088860289918  0.11548485456562727  0.8124096131987838  1.0000
  C   C1        1.0  0.3353041451330869  0.541821056875089  0.7786126247861396  1.0000
  C   C2        1.0  0.11917182923229813  0.2339412995776411  0.0824515501253058  1.0000
  C   C3        1.0  0.6072296086871525  0.07627400166634501  0.29835489305251517  1.0000
  C   C4        1.0  0.9331489164362897  0.7358778472710554  0.6704276239678904  1.0000
  C   C5        1.0  0.549184073028321  0.9408078356377723  0.6718069763584474  1.0000
  C   C6        1.0  0.746863016875406  0.5738063853820898  0.18976427579036362  1.0000
  N   N1        1.0  0.27106223361443194  0.6143282768039237  0.39429575931882566  1.0000
  N   N2        1.0  0.2158219705919613  0.12248953128904638  0.44099636361909256  1.0000
  N   N3        1.0  0.23073697157083692  0.7442993824622443  0.3840259677663671  1.0000
  N   N4        1.0  0.20464506345489564  0.15556531649650784  0.5678750640605769  1.0000
  O   O1        1.0  0.4897205038189077  0.5535537315850251  0.8504956692432153  1.0000
  O   O2        1.0  0.010277934270977257  0.056230219747258614  0.08384419825226908  1.0000
  O   O3        1.0  0.7364530162076277  0.2488411915156834  0.3675124336038381  1.0000
  O   O4        1.0  0.9234231629176018  0.7970221094714545  0.816891274377335  1.0000
  O   O5        1.0  0.2642477784827131  0.3924271774130683  0.11157383901531581  1.0000
  O   O6        1.0  0.18502026732668378  0.5314658744726384  0.727257591703995  1.0000
  O   O7        1.0  0.8991908683658855  0.6134829918163853  0.5340486490976113  1.0000
  O   O8        1.0  0.5021763120647043  0.9625193375856953  0.17823108936703824  1.0000
  O   O9        1.0  0.6785297768861646  0.9321837535220813  0.5880412309317627  1.0000
  O   O10       1.0  0.7237999106240726  0.6948485843729068  0.3042084746634011  1.0000
data_image138
_chemical_formula_structural       Cu2C6N4O10
_chemical_formula_sum              "Cu2 C6 N4 O10"
_cell_length_a       6.950721000000001
_cell_length_b       7.113486077992492
_cell_length_c       8.6539786637408
_cell_angle_alpha    105.43300670560022
_cell_angle_beta     90.64948243757532
_cell_angle_gamma    112.19062950933201

_space_group_name_H-M_alt    "P 1"
_space_group_IT_number       1

loop_
  _space_group_symop_operation_xyz
  'x, y, z'

loop_
  _atom_site_type_symbol
  _atom_site_label
  _atom_site_symmetry_multiplicity
  _atom_site_fract_x
  _atom_site_fract_y
  _atom_site_fract_z
  _atom_site_occupancy
  Cu  Cu1       1.0  0.7340527972114961  0.5999662896330463  0.030536054753868374  1.0000
  Cu  Cu2       1.0  0.49201248602114417  0.14979399312981664  0.7940194224710736  1.0000
  C   C1        1.0  0.3795446768877415  0.592286763020875  0.8418863300663751  1.0000
  C   C2        1.0  0.12771218403417972  0.15216443957898473  0.9994951501125066  1.0000
  C   C3        1.0  0.6586202947332938  0.15128365071972927  0.23127198983757546  1.0000
  C   C4        1.0  0.9306175110823144  0.7509193768961338  0.683482011827773  1.0000
  C   C5        1.0  0.5773035995702449  0.9253948057412519  0.7370975660757455  1.0000
  C   C6        1.0  0.7563086449774434  0.6711339425941487  0.2701819987555034  1.0000
  N   N1        1.0  0.1751959978266515  0.5854365177957968  0.2984894007755883  1.0000
  N   N2        1.0  0.18485316357865367  0.19821238575198885  0.5428365526359936  1.0000
  N   N3        1.0  0.15139256654195957  0.5277736405820405  0.16161973110503491  1.0000
  N   N4        1.0  0.3300651622778915  0.17629190901579994  0.574563766592831  1.0000
  O   O1        1.0  0.4847637633032916  0.6142261064891574  0.9601643401292591  1.0000
  O   O2        1.0  0.019000655804805807  0.14894975228632368  0.09404635469862255  1.0000
  O   O3        1.0  0.7810418015489338  0.25607401387477835  0.3570880693075683  1.0000
  O   O4        1.0  0.8415981780454567  0.6924739553975225  0.79213321786447  1.0000
  O   O5        1.0  0.21277647183335568  0.12824014914040371  0.880309056038528  1.0000
  O   O6        1.0  0.2378172700984166  0.5456811741123759  0.7546110829297543  1.0000
  O   O7        1.0  0.9842177480828759  0.8082979021368908  0.5685975818571203  1.0000
  O   O8        1.0  0.5320890575292188  0.9754442590787118  0.16583326934960074  1.0000
  O   O9        1.0  0.6171240601917158  0.8273328066791318  0.6123128938298235  1.0000
  O   O10       1.0  0.6069196227187194  0.543343974426257  0.3094316973584294  1.0000
data_image139
_chemical_formula_structural       Cu2C6N4O10
_chemical_formula_sum              "Cu2 C6 N4 O10"
_cell_length_a       6.950721000000001
_cell_length_b       7.113486077992492
_cell_length_c       8.6539786637408
_cell_angle_alpha    105.43300670560022
_cell_angle_beta     90.64948243757532
_cell_angle_gamma    112.19062950933201

_space_group_name_H-M_alt    "P 1"
_space_group_IT_number       1

loop_
  _space_group_symop_operation_xyz
  'x, y, z'

loop_
  _atom_site_type_symbol
  _atom_site_label
  _atom_site_symmetry_multiplicity
  _atom_site_fract_x
  _atom_site_fract_y
  _atom_site_fract_z
  _atom_site_occupancy
  Cu  Cu1       1.0  0.7464426118760494  0.531163350699968  0.046890720356426205  1.0000
  Cu  Cu2       1.0  0.5756844520606372  0.21983703279995187  0.7761300583174867  1.0000
  C   C1        1.0  0.2882147559824819  0.5073737530492076  0.8394560365754886  1.0000
  C   C2        1.0  0.17906197547378072  0.18117306295154068  0.9881243257449679  1.0000
  C   C3        1.0  0.7434571845826511  0.163379658942981  0.19959071674049234  1.0000
  C   C4        1.0  0.8764767947410531  0.6444392966833332  0.7500612400918908  1.0000
  C   C5        1.0  0.47679884847949955  0.9465336743606096  0.6729039183158121  1.0000
  C   C6        1.0  0.575154339989228  0.518389728078657  0.21753879440826998  1.0000
  N   N1        1.0  0.20851528796442514  0.6638831903199229  0.2733362865225313  1.0000
  N   N2        1.0  0.260463678669828  0.2066133530084091  0.48233108639873856  1.0000
  N   N3        1.0  0.15923814130078945  0.7175868502392794  0.18153912384358084  1.0000
  N   N4        1.0  0.4071871462515776  0.28038230024689526  0.5683971004599007  1.0000
  O   O1        1.0  0.4432406180831974  0.6255916466166547  0.929937927103619  1.0000
  O   O2        1.0  0.0723126935459333  0.17903564333131627  0.09761288545103786  1.0000
  O   O3        1.0  0.8504756433103743  0.3427857947827273  0.2810104498764605  1.0000
  O   O4        1.0  0.81701530907315  0.675409807018623  0.8935258039496723  1.0000
  O   O5        1.0  0.234295563018235  0.16564696422584868  0.8522374002169595  1.0000
  O   O6        1.0  0.09470498288041064  0.4105822658340667  0.7891240657030162  1.0000
  O   O7        1.0  0.9103019258296053  0.5928753555241122  0.6196920974831508  1.0000
  O   O8        1.0  0.5610903673162444  0.060691715102068944  0.11957855736400713  1.0000
  O   O9        1.0  0.467680703389003  0.7819628115776724  0.6857755315689329  1.0000
  O   O10       1.0  0.5287512575358453  0.5760452657829263  0.3610246913285754  1.0000
data_image140
_chemical_formula_structural       Cu2C6N4O10
_chemical_formula_sum              "Cu2 C6 N4 O10"
_cell_length_a       6.950721000000001
_cell_length_b       7.113486077992492
_cell_length_c       8.6539786637408
_cell_angle_alpha    105.43300670560022
_cell_angle_beta     90.64948243757532
_cell_angle_gamma    112.19062950933201

_space_group_name_H-M_alt    "P 1"
_space_group_IT_number       1

loop_
  _space_group_symop_operation_xyz
  'x, y, z'

loop_
  _atom_site_type_symbol
  _atom_site_label
  _atom_site_symmetry_multiplicity
  _atom_site_fract_x
  _atom_site_fract_y
  _atom_site_fract_z
  _atom_site_occupancy
  Cu  Cu1       1.0  0.6898221275063285  0.5357659146840821  0.03361473938290463  1.0000
  Cu  Cu2       1.0  0.6067977507386639  0.261731088370719  0.7630471805097663  1.0000
  C   C1        1.0  0.33441661500866804  0.5262696370839836  0.8257667969975713  1.0000
  C   C2        1.0  0.1331355480956671  0.08557661319056264  0.00016884177090448205  1.0000
  C   C3        1.0  0.6895771885384687  0.13212105899989912  0.2018418094727109  1.0000
  C   C4        1.0  0.8521296303630947  0.47438393156741143  0.7092361502950537  1.0000
  C   C5        1.0  0.5785611637075184  0.017819701462460213  0.7514114386852806  1.0000
  C   C6        1.0  0.6031385613731057  0.6460501382057164  0.24496118988703344  1.0000
  N   N1        1.0  0.007178513742259264  0.768776721272571  0.24899223537322213  1.0000
  N   N2        1.0  0.46667675114286566  0.3377647037190368  0.49751461789271084  1.0000
  N   N3        1.0  0.08580612337833633  0.7352867395703219  0.34923676241971835  1.0000
  N   N4        1.0  0.47045809155224594  0.20471827245065155  0.5375197384690173  1.0000
  O   O1        1.0  0.4625837925068256  0.692091524230552  0.9224601192798733  1.0000
  O   O2        1.0  0.0001019268591460803  0.052576396209588205  0.08984237405832118  1.0000
  O   O3        1.0  0.6395163918113109  0.27813709445958  0.1778840512882649  1.0000
  O   O4        1.0  0.9121045778589777  0.6017757620660884  0.8596483685298425  1.0000
  O   O5        1.0  0.27031908971962254  0.02664590513603482  0.9401407627573483  1.0000
  O   O6        1.0  0.21481339588299878  0.40031690049376584  0.7200479759178624  1.0000
  O   O7        1.0  0.8813312603621362  0.5179413306653946  0.5882387560162923  1.0000
  O   O8        1.0  0.734547172488938  0.06123104187777817  0.2983970251408328  1.0000
  O   O9        1.0  0.48222887745502047  0.84538811553945  0.6917103779631399  1.0000
  O   O10       1.0  0.4433158843634959  0.654323647636704  0.2815344691840125  1.0000
data_image141
_chemical_formula_structural       Cu2C6N4O10
_chemical_formula_sum              "Cu2 C6 N4 O10"
_cell_length_a       6.950721000000001
_cell_length_b       7.113486077992492
_cell_length_c       8.6539786637408
_cell_angle_alpha    105.43300670560022
_cell_angle_beta     90.64948243757532
_cell_angle_gamma    112.19062950933201

_space_group_name_H-M_alt    "P 1"
_space_group_IT_number       1

loop_
  _space_group_symop_operation_xyz
  'x, y, z'

loop_
  _atom_site_type_symbol
  _atom_site_label
  _atom_site_symmetry_multiplicity
  _atom_site_fract_x
  _atom_site_fract_y
  _atom_site_fract_z
  _atom_site_occupancy
  Cu  Cu1       1.0  0.6916748210660413  0.5660721434076488  0.021384581746880585  1.0000
  Cu  Cu2       1.0  0.6638184185356634  0.27336589799850464  0.7754591750402117  1.0000
  C   C1        1.0  0.40248692185269486  0.6257951949558456  0.8872435939892048  1.0000
  C   C2        1.0  0.054030944270475084  0.008488951811021161  0.02437816110116331  1.0000
  C   C3        1.0  0.74492136693352  0.1088750306792381  0.26153457604360353  1.0000
  C   C4        1.0  0.9633271373696406  0.49432961396564634  0.7237303753073713  1.0000
  C   C5        1.0  0.4989142859131941  0.003655133025486931  0.6158222159750633  1.0000
  C   C6        1.0  0.5788969441495618  0.6649975611747868  0.2128907815551155  1.0000
  N   N1        1.0  0.8154979058722762  0.5533875648247778  0.30561411900265534  1.0000
  N   N2        1.0  0.4127733960060598  0.2279406893656697  0.4651018832202144  1.0000
  N   N3        1.0  0.9178098511212115  0.7223546283777014  0.3885859974585648  1.0000
  N   N4        1.0  0.2921156355016449  0.17043158670538316  0.3582782467805219  1.0000
  O   O1        1.0  0.4478250228795621  0.8092048582855965  0.8957948932246017  1.0000
  O   O2        1.0  0.8697426398604977  0.9646549808483078  0.041218182565253336  1.0000
  O   O3        1.0  0.5680401374333999  0.02967958829359585  0.1899878257873372  1.0000
  O   O4        1.0  0.8989847394348665  0.5684338407279828  0.8356512107018568  1.0000
  O   O5        1.0  0.24821095596269335  0.09767703769085667  0.981983427152662  1.0000
  O   O6        1.0  0.3719086103316251  0.42080632098537357  0.8688572838201801  1.0000
  O   O7        1.0  0.10274879613750643  0.534129948055535  0.641658697133993  1.0000
  O   O8        1.0  0.9135428400794701  0.2132090212279274  0.344424343813025  1.0000
  O   O9        1.0  0.33565026970434275  0.8802721813567842  0.5472974309588464  1.0000
  O   O10       1.0  0.5259604196617609  0.7500626047297154  0.32727254256090277  1.0000
data_image142
_chemical_formula_structural       Cu2C6N4O10
_chemical_formula_sum              "Cu2 C6 N4 O10"
_cell_length_a       6.950721000000001
_cell_length_b       7.113486077992492
_cell_length_c       8.6539786637408
_cell_angle_alpha    105.43300670560022
_cell_angle_beta     90.64948243757532
_cell_angle_gamma    112.19062950933201

_space_group_name_H-M_alt    "P 1"
_space_group_IT_number       1

loop_
  _space_group_symop_operation_xyz
  'x, y, z'

loop_
  _atom_site_type_symbol
  _atom_site_label
  _atom_site_symmetry_multiplicity
  _atom_site_fract_x
  _atom_site_fract_y
  _atom_site_fract_z
  _atom_site_occupancy
  Cu  Cu1       1.0  0.7449197988705587  0.5695630813606806  0.0721124042974256  1.0000
  Cu  Cu2       1.0  0.7303270574125641  0.1779988804704984  0.7514224024173787  1.0000
  C   C1        1.0  0.37154072835157287  0.718265807256014  0.9601793658352139  1.0000
  C   C2        1.0  0.06771264305977821  0.003971478249986671  0.9723725003547635  1.0000
  C   C3        1.0  0.6790819426420265  0.14891172573084055  0.28075422924599946  1.0000
  C   C4        1.0  0.9283511897075789  0.47069906723019894  0.6268898562750955  1.0000
  C   C5        1.0  0.4819989270255166  0.9549123443405447  0.5700423504919409  1.0000
  C   C6        1.0  0.5592709483938212  0.6977074474398969  0.17931786441393296  1.0000
  N   N1        1.0  0.8881137185413795  0.6097943001089302  0.3696525434776812  1.0000
  N   N2        1.0  0.29460626451238225  0.3924503920776652  0.43440167813752045  1.0000
  N   N3        1.0  0.9645215024173468  0.7842931453014883  0.415461041565663  1.0000
  N   N4        1.0  0.3924639325988515  0.2998246039867749  0.40426337172494836  1.0000
  O   O1        1.0  0.44608289522501254  0.898103318250187  0.979465705021864  1.0000
  O   O2        1.0  0.9276180223265252  0.8431318839446055  0.9338660760495745  1.0000
  O   O3        1.0  0.5074299642597127  0.019002575387246257  0.23733428288817204  1.0000
  O   O4        1.0  0.7547982075275985  0.48003428356673794  0.6595309143265184  1.0000
  O   O5        1.0  0.20837537757404678  0.18163470580081786  0.03947445742805833  1.0000
  O   O6        1.0  0.2792075612393222  0.5252112422641235  0.9519465103275506  1.0000
  O   O7        1.0  0.082137027398967  0.42640705156304226  0.6500737469615707  1.0000
  O   O8        1.0  0.8674865431088343  0.1929462280144616  0.29440916814844864  1.0000
  O   O9        1.0  0.30145264291297197  0.9404011093866728  0.5332306453980953  1.0000
  O   O10       1.0  0.4584414706302832  0.6959532989753562  0.2982696949256612  1.0000
data_image143
_chemical_formula_structural       Cu2C6N4O10
_chemical_formula_sum              "Cu2 C6 N4 O10"
_cell_length_a       6.950721000000001
_cell_length_b       7.113486077992492
_cell_length_c       8.6539786637408
_cell_angle_alpha    105.43300670560022
_cell_angle_beta     90.64948243757532
_cell_angle_gamma    112.19062950933201

_space_group_name_H-M_alt    "P 1"
_space_group_IT_number       1

loop_
  _space_group_symop_operation_xyz
  'x, y, z'

loop_
  _atom_site_type_symbol
  _atom_site_label
  _atom_site_symmetry_multiplicity
  _atom_site_fract_x
  _atom_site_fract_y
  _atom_site_fract_z
  _atom_site_occupancy
  Cu  Cu1       1.0  0.6853201184861653  0.5517177083688797  0.03981991726385196  1.0000
  Cu  Cu2       1.0  0.7704789664531685  0.10355894622285117  0.7125170307993802  1.0000
  C   C1        1.0  0.36929956986678236  0.6135838766938786  0.9542778540574046  1.0000
  C   C2        1.0  0.1225910824391759  0.00039621829018243737  0.9574227433404718  1.0000
  C   C3        1.0  0.7212193119735062  0.24141625720237458  0.28722054282742326  1.0000
  C   C4        1.0  0.7968756197557543  0.3266864889824401  0.6406210418852301  1.0000
  C   C5        1.0  0.4432177243834524  0.9594490451263746  0.5921156267559953  1.0000
  C   C6        1.0  0.5855790895768337  0.6944078916587089  0.2050455516321587  1.0000
  N   N1        1.0  0.9865511103629917  0.7941793762939433  0.43214883217059596  1.0000
  N   N2        1.0  0.39452175874178264  0.4299149375338991  0.5335900653970329  1.0000
  N   N3        1.0  0.8565479739079969  0.828444806359418  0.4964183139989089  1.0000
  N   N4        1.0  0.27494393239011405  0.49711235097775575  0.5540340238769086  1.0000
  O   O1        1.0  0.478539917414437  0.6190752782996963  0.8549746808886707  1.0000
  O   O2        1.0  0.01749448690809962  0.8201878972909875  0.9140735179380908  1.0000
  O   O3        1.0  0.5512683931287683  0.22489462379025027  0.3218918990340355  1.0000
  O   O4        1.0  0.6735998002291603  0.38456943901051277  0.597785037824795  1.0000
  O   O5        1.0  0.21678660182783485  0.173988618812966  0.9820872297222881  1.0000
  O   O6        1.0  0.22079419821896087  0.6101918897034398  0.04145137216924888  1.0000
  O   O7        1.0  0.9914602966636491  0.35839067762325705  0.6708722776067846  1.0000
  O   O8        1.0  0.8832342036470092  0.2260097156678127  0.2368024265863664  1.0000
  O   O9        1.0  0.3180270850512149  0.024256162098702835  0.5557875801286478  1.0000
  O   O10       1.0  0.6235421533308546  0.8435999144756009  0.30528874218651214  1.0000
data_image144
_chemical_formula_structural       Cu2C6N4O10
_chemical_formula_sum              "Cu2 C6 N4 O10"
_cell_length_a       6.950721000000001
_cell_length_b       7.113486077992492
_cell_length_c       8.6539786637408
_cell_angle_alpha    105.43300670560022
_cell_angle_beta     90.64948243757532
_cell_angle_gamma    112.19062950933201

_space_group_name_H-M_alt    "P 1"
_space_group_IT_number       1

loop_
  _space_group_symop_operation_xyz
  'x, y, z'

loop_
  _atom_site_type_symbol
  _atom_site_label
  _atom_site_symmetry_multiplicity
  _atom_site_fract_x
  _atom_site_fract_y
  _atom_site_fract_z
  _atom_site_occupancy
  Cu  Cu1       1.0  0.6509490070288235  0.5031544558455798  0.07877231052558213  1.0000
  Cu  Cu2       1.0  0.7286973880223387  0.0964120753577465  0.8095755888828474  1.0000
  C   C1        1.0  0.32353668213449893  0.5058649371230945  0.8750185769760952  1.0000
  C   C2        1.0  0.05064362055642342  0.05664087119355243  0.9779235949932101  1.0000
  C   C3        1.0  0.7270233668919528  0.3093567515544271  0.17974789550772163  1.0000
  C   C4        1.0  0.8803120421175817  0.3904656170382801  0.6309942586307971  1.0000
  C   C5        1.0  0.6010854739482715  0.015058401327566058  0.6185175005281403  1.0000
  C   C6        1.0  0.6695268147571325  0.7914536892270116  0.21443266458798085  1.0000
  N   N1        1.0  0.9194957395033062  0.7808180789158763  0.45855485754652525  1.0000
  N   N2        1.0  0.3263826658431378  0.45181488107341927  0.4299688348853058  1.0000
  N   N3        1.0  0.056006035194500016  0.7414183540768547  0.45883673872459063  1.0000
  N   N4        1.0  0.3823887709815572  0.41632485367901984  0.5313722389842054  1.0000
  O   O1        1.0  0.4663582104688506  0.4567679749821864  0.8706202573525411  1.0000
  O   O2        1.0  0.8883583750139001  0.9192502484142846  0.9090386742902455  1.0000
  O   O3        1.0  0.5282264708933009  0.24638117178761365  0.19647528097354483  1.0000
  O   O4        1.0  0.7939008787214338  0.5008660368572342  0.6732413802630806  1.0000
  O   O5        1.0  0.17856802794212978  0.23340743974388056  0.014343073040384624  1.0000
  O   O6        1.0  0.19982247595491975  0.5577755804284008  0.9425298258510659  1.0000
  O   O7        1.0  0.9477170068724934  0.2647136420002676  0.5949708189202121  1.0000
  O   O8        1.0  0.8969712647987101  0.34266822007922837  0.15910883640517448  1.0000
  O   O9        1.0  0.5184291188240581  0.09380603825049724  0.5540510966303342  1.0000
  O   O10       1.0  0.5437337708957082  0.8516371246256995  0.2542190222542571  1.0000
data_image145
_chemical_formula_structural       Cu2C6N4O10
_chemical_formula_sum              "Cu2 C6 N4 O10"
_cell_length_a       6.950721000000001
_cell_length_b       7.113486077992492
_cell_length_c       8.6539786637408
_cell_angle_alpha    105.43300670560022
_cell_angle_beta     90.64948243757532
_cell_angle_gamma    112.19062950933201

_space_group_name_H-M_alt    "P 1"
_space_group_IT_number       1

loop_
  _space_group_symop_operation_xyz
  'x, y, z'

loop_
  _atom_site_type_symbol
  _atom_site_label
  _atom_site_symmetry_multiplicity
  _atom_site_fract_x
  _atom_site_fract_y
  _atom_site_fract_z
  _atom_site_occupancy
  Cu  Cu1       1.0  0.6684914873172048  0.5747341985302731  0.0576911311923509  1.0000
  Cu  Cu2       1.0  0.6772738928372766  0.937137316385633  0.8039540787971861  1.0000
  C   C1        1.0  0.26504441127758904  0.4122984408209267  0.8383368640706426  1.0000
  C   C2        1.0  0.01800160855424904  0.0467731780718641  0.07355478862617426  1.0000
  C   C3        1.0  0.7998492714235083  0.39249252569754534  0.17758360127661754  1.0000
  C   C4        1.0  0.9481570552215691  0.5468687324074728  0.6196461004875113  1.0000
  C   C5        1.0  0.5753019802403228  0.11164509968119901  0.6701864632609102  1.0000
  C   C6        1.0  0.5064610891740616  0.7088335430683115  0.19598034462274486  1.0000
  N   N1        1.0  0.9496674956654783  0.8170104151714058  0.40818059130402773  1.0000
  N   N2        1.0  0.37780248247251824  0.4665038503668808  0.5293524575612542  1.0000
  N   N3        1.0  0.05116659211009162  0.8304708365897873  0.304244394318993  1.0000
  N   N4        1.0  0.4582385103378599  0.4122746718346577  0.422674155556961  1.0000
  O   O1        1.0  0.45100743113517283  0.43439099957308475  0.8148621499358462  1.0000
  O   O2        1.0  0.8329882804502653  0.9233096069979889  0.021359573456735115  1.0000
  O   O3        1.0  0.6286899691632629  0.2789763061391821  0.11989774605322268  1.0000
  O   O4        1.0  0.9328691876222328  0.6874764204178352  0.713890298324609  1.0000
  O   O5        1.0  0.19124727267829  0.10997114788250473  0.1288940157602665  1.0000
  O   O6        1.0  0.10171003969420281  0.43541715461891384  0.8692428551790402  1.0000
  O   O7        1.0  0.9367112596101251  0.38625615869634133  0.5107977090317588  1.0000
  O   O8        1.0  0.967802534842313  0.4100612945245645  0.21714439815950803  1.0000
  O   O9        1.0  0.4068674280001124  0.07050439927100186  0.6956910414764522  1.0000
  O   O10       1.0  0.6171593593785276  0.8447667857934851  0.30973714483597875  1.0000
data_image146
_chemical_formula_structural       Cu2C6N4O10
_chemical_formula_sum              "Cu2 C6 N4 O10"
_cell_length_a       6.950721000000001
_cell_length_b       7.113486077992492
_cell_length_c       8.6539786637408
_cell_angle_alpha    105.43300670560022
_cell_angle_beta     90.64948243757532
_cell_angle_gamma    112.19062950933201

_space_group_name_H-M_alt    "P 1"
_space_group_IT_number       1

loop_
  _space_group_symop_operation_xyz
  'x, y, z'

loop_
  _atom_site_type_symbol
  _atom_site_label
  _atom_site_symmetry_multiplicity
  _atom_site_fract_x
  _atom_site_fract_y
  _atom_site_fract_z
  _atom_site_occupancy
  Cu  Cu1       1.0  0.7305855521762623  0.6663534005878007  0.10666125298880873  1.0000
  Cu  Cu2       1.0  0.6553578795540218  0.8594453837074043  0.7720848559092227  1.0000
  C   C1        1.0  0.27277158146814484  0.5326203783846335  0.8711710349010413  1.0000
  C   C2        1.0  0.9707529220938614  0.8258359608590217  0.9893415819928897  1.0000
  C   C3        1.0  0.8818022170478865  0.33813546301396036  0.04670042783634931  1.0000
  C   C4        1.0  0.8274365057758294  0.5177647880098757  0.7085806577046432  1.0000
  C   C5        1.0  0.30749394376065814  0.972392871133572  0.791435065415288  1.0000
  C   C6        1.0  0.5767654892571908  0.8299501155968658  0.21645944566511088  1.0000
  N   N1        1.0  0.12704529467734837  0.044106129650660186  0.4043935547925579  1.0000
  N   N2        1.0  0.6005934495399996  0.6448077950093589  0.5254261642080245  1.0000
  N   N3        1.0  0.06120759925283923  0.8613456189043682  0.37641051210426113  1.0000
  N   N4        1.0  0.4570418029263761  0.4941267049631115  0.5017180547085189  1.0000
  O   O1        1.0  0.4422635556045362  0.5587377076477892  0.8429963608192759  1.0000
  O   O2        1.0  0.8104623989615652  0.7820302118242723  0.9073518833318567  1.0000
  O   O3        1.0  0.7100322796077678  0.25981129559026783  0.9632969000144098  1.0000
  O   O4        1.0  0.9678582830879647  0.6812549944373882  0.695781035496548  1.0000
  O   O5        1.0  0.1530920377512718  0.8592979946538749  0.9992838603269677  1.0000
  O   O6        1.0  0.08887678534274256  0.4270327253373189  0.8583442566198427  1.0000
  O   O7        1.0  0.6900977264315533  0.3587413062087357  0.7168068595241301  1.0000
  O   O8        1.0  0.03905052110866585  0.3742868462908835  0.11936111744476174  1.0000
  O   O9        1.0  0.2419444106737022  0.022243024920189817  0.7130281841121262  1.0000
  O   O10       1.0  0.6089750795817105  0.8996735497226768  0.35834282423518576  1.0000
data_image147
_chemical_formula_structural       Cu2C6N4O10
_chemical_formula_sum              "Cu2 C6 N4 O10"
_cell_length_a       6.950721000000001
_cell_length_b       7.113486077992492
_cell_length_c       8.6539786637408
_cell_angle_alpha    105.43300670560022
_cell_angle_beta     90.64948243757532
_cell_angle_gamma    112.19062950933201

_space_group_name_H-M_alt    "P 1"
_space_group_IT_number       1

loop_
  _space_group_symop_operation_xyz
  'x, y, z'

loop_
  _atom_site_type_symbol
  _atom_site_label
  _atom_site_symmetry_multiplicity
  _atom_site_fract_x
  _atom_site_fract_y
  _atom_site_fract_z
  _atom_site_occupancy
  Cu  Cu1       1.0  0.7488874371194387  0.6620960666141562  0.10549360260317388  1.0000
  Cu  Cu2       1.0  0.6109236974286264  0.8742628915716358  0.7573718068488181  1.0000
  C   C1        1.0  0.12829660728641581  0.4627957109763339  0.7997930071628275  1.0000
  C   C2        1.0  0.05889796987181371  0.8722069146847587  0.0007043760468266047  1.0000
  C   C3        1.0  0.8733375868609998  0.2160887235686202  0.10221308752683944  1.0000
  C   C4        1.0  0.7483321508942666  0.3390204324403707  0.59013663229536  1.0000
  C   C5        1.0  0.45764302781308497  0.043962492548513615  0.7407313852337792  1.0000
  C   C6        1.0  0.7852049287294656  0.9778513928456287  0.28552397021200904  1.0000
  N   N1        1.0  0.2158794697619165  0.019066753427655625  0.47528166147454054  1.0000
  N   N2        1.0  0.47717670879224827  0.6344699165513927  0.5044885824916667  1.0000
  N   N3        1.0  0.0894684512851494  0.03763925843314664  0.5351535228102355  1.0000
  N   N4        1.0  0.5382655083654515  0.6089899483804175  0.3787421606991067  1.0000
  O   O1        1.0  0.2086146965056737  0.6187774195939395  0.7592939844817623  1.0000
  O   O2        1.0  0.8948295972456773  0.7738244852126678  0.912517300451891  1.0000
  O   O3        1.0  0.7149516192400822  0.26420720365364136  0.07855237052764175  1.0000
  O   O4        1.0  0.9051205863686571  0.3649282698080307  0.5261665082994951  1.0000
  O   O5        1.0  0.2075458556345072  0.9350016045278723  0.07928469423214257  1.0000
  O   O6        1.0  0.04062644713260842  0.3267061777932744  0.8636162325723031  1.0000
  O   O7        1.0  0.6253240629782629  0.4126779059873902  0.6584253552173136  1.0000
  O   O8        1.0  0.012895688780469457  0.21890078238170863  0.18819450307820262  1.0000
  O   O9        1.0  0.33813230202110384  0.059500999676354124  0.8241904361354989  1.0000
  O   O10       1.0  0.6753212632300354  0.06175987208436573  0.35227800133918774  1.0000
data_image148
_chemical_formula_structural       Cu2C6N4O10
_chemical_formula_sum              "Cu2 C6 N4 O10"
_cell_length_a       6.950721000000001
_cell_length_b       7.113486077992492
_cell_length_c       8.6539786637408
_cell_angle_alpha    105.43300670560022
_cell_angle_beta     90.64948243757532
_cell_angle_gamma    112.19062950933201

_space_group_name_H-M_alt    "P 1"
_space_group_IT_number       1

loop_
  _space_group_symop_operation_xyz
  'x, y, z'

loop_
  _atom_site_type_symbol
  _atom_site_label
  _atom_site_symmetry_multiplicity
  _atom_site_fract_x
  _atom_site_fract_y
  _atom_site_fract_z
  _atom_site_occupancy
  Cu  Cu1       1.0  0.795974398247342  0.7740748318456818  0.11951263885023652  1.0000
  Cu  Cu2       1.0  0.6936738068810138  0.8063022545394433  0.7590942016414843  1.0000
  C   C1        1.0  0.06841738139466194  0.4402411499771139  0.820456608644693  1.0000
  C   C2        1.0  0.07160719079205542  0.9224277250759334  0.04564581908785592  1.0000
  C   C3        1.0  0.8860223377217867  0.3701585611549345  0.12144885122919113  1.0000
  C   C4        1.0  0.6954667063231693  0.39981877036214053  0.5150388450659105  1.0000
  C   C5        1.0  0.5198554955115655  0.9752277451114135  0.875874932221727  1.0000
  C   C6        1.0  0.5286697951052263  0.7618539897800106  0.20114313092918265  1.0000
  N   N1        1.0  0.3558009320574746  0.06608826679412183  0.5722876366050627  1.0000
  N   N2        1.0  0.2922224925016854  0.46627186369756446  0.34746818875798974  1.0000
  N   N3        1.0  0.20854759695265676  0.10981967361598444  0.5528324988820705  1.0000
  N   N4        1.0  0.38018617085099116  0.3674210392077577  0.3542829612800156  1.0000
  O   O1        1.0  0.2317221783282065  0.5696407776048282  0.8097432468027234  1.0000
  O   O2        1.0  0.05560487359964564  0.9350845295627791  0.8922699547865761  1.0000
  O   O3        1.0  0.7056740827551882  0.3440834265450141  0.11250586070376944  1.0000
  O   O4        1.0  0.7067742765194512  0.24850352098711048  0.4144757403486256  1.0000
  O   O5        1.0  0.1710463908220361  0.9655421350717529  0.17260836787704115  1.0000
  O   O6        1.0  0.8986780852372523  0.32162642784059225  0.8403457660114642  1.0000
  O   O7        1.0  0.6922187585691085  0.48604999261075377  0.6662169267299074  1.0000
  O   O8        1.0  0.046161373863793  0.3447012469333852  0.114071393487156  1.0000
  O   O9        1.0  0.4242844721193038  0.07270445729371586  0.8797464624254526  1.0000
  O   O10       1.0  0.45886671300656073  0.8561831503695171  0.2865980459459147  1.0000
data_image149
_chemical_formula_structural       Cu2C6N4O10
_chemical_formula_sum              "Cu2 C6 N4 O10"
_cell_length_a       6.950721000000001
_cell_length_b       7.113486077992492
_cell_length_c       8.6539786637408
_cell_angle_alpha    105.43300670560022
_cell_angle_beta     90.64948243757532
_cell_angle_gamma    112.19062950933201

_space_group_name_H-M_alt    "P 1"
_space_group_IT_number       1

loop_
  _space_group_symop_operation_xyz
  'x, y, z'

loop_
  _atom_site_type_symbol
  _atom_site_label
  _atom_site_symmetry_multiplicity
  _atom_site_fract_x
  _atom_site_fract_y
  _atom_site_fract_z
  _atom_site_occupancy
  Cu  Cu1       1.0  0.7439291950268347  0.8838451976867798  0.1517674383145812  1.0000
  Cu  Cu2       1.0  0.6856001961379942  0.7399680523033917  0.7827870213842062  1.0000
  C   C1        1.0  0.10159362393020999  0.46472153358736235  0.7939585443320873  1.0000
  C   C2        1.0  0.03656159369366321  0.8193530086404494  0.011840839359320565  1.0000
  C   C3        1.0  0.963059231304231  0.4323372477540022  0.18310565259594946  1.0000
  C   C4        1.0  0.7702822226776639  0.40786922143275595  0.49671355418670915  1.0000
  C   C5        1.0  0.5661867186687287  0.9524252526302271  0.8357176285908129  1.0000
  C   C6        1.0  0.46820844580791154  0.7762579422668197  0.10981323369101713  1.0000
  N   N1        1.0  0.3004921785327282  0.9678821107517227  0.5955830565276725  1.0000
  N   N2        1.0  0.2595820712532404  0.3029616731628524  0.4289013615315855  1.0000
  N   N3        1.0  0.3463650135833391  0.1510160665659328  0.6614235316156742  1.0000
  N   N4        1.0  0.3375067472021075  0.30158306777099675  0.3206445634193193  1.0000
  O   O1        1.0  0.27907074724730707  0.5546984042978064  0.7989679989993344  1.0000
  O   O2        1.0  0.04387021322308316  0.8426067973230291  0.8722040991260759  1.0000
  O   O3        1.0  0.8285818883995296  0.48076903446030683  0.22729809866933048  1.0000
  O   O4        1.0  0.691764658660575  0.21293806112279534  0.43927043978078073  1.0000
  O   O5        1.0  0.009685517026250638  0.9157007917889523  0.14438376623442695  1.0000
  O   O6        1.0  0.9132288382042859  0.3800017639557037  0.7570433698431253  1.0000
  O   O7        1.0  0.8125573960276083  0.5886530659889129  0.4899107260694333  1.0000
  O   O8        1.0  0.12729882305296294  0.4176320720739384  0.14158683522286641  1.0000
  O   O9        1.0  0.4925926928890056  0.05284376549970678  0.9175778090208564  1.0000
  O   O10       1.0  0.3225979994993761  0.7888943450116337  0.13908753973612994  1.0000
data_image150
_chemical_formula_structural       Cu2C6N4O10
_chemical_formula_sum              "Cu2 C6 N4 O10"
_cell_length_a       6.950721000000001
_cell_length_b       7.113486077992492
_cell_length_c       8.6539786637408
_cell_angle_alpha    105.43300670560022
_cell_angle_beta     90.64948243757532
_cell_angle_gamma    112.19062950933201

_space_group_name_H-M_alt    "P 1"
_space_group_IT_number       1

loop_
  _space_group_symop_operation_xyz
  'x, y, z'

loop_
  _atom_site_type_symbol
  _atom_site_label
  _atom_site_symmetry_multiplicity
  _atom_site_fract_x
  _atom_site_fract_y
  _atom_site_fract_z
  _atom_site_occupancy
  Cu  Cu1       1.0  0.7317691358569389  0.877420537812904  0.21204208580309766  1.0000
  Cu  Cu2       1.0  0.7553574194126336  0.8273944648223809  0.8021625363202984  1.0000
  C   C1        1.0  0.13389511797873543  0.3930799213729511  0.7440919499812153  1.0000
  C   C2        1.0  0.9044892785841648  0.8033531986873623  0.9725959152033015  1.0000
  C   C3        1.0  0.048418869668372944  0.37018887909788756  0.08170103604606649  1.0000
  C   C4        1.0  0.6690206668312405  0.41194793607219626  0.5185086197130138  1.0000
  C   C5        1.0  0.5775623712186365  0.9381249650758655  0.8997518365591312  1.0000
  C   C6        1.0  0.42290844102399666  0.78609909751951  0.20604635051980544  1.0000
  N   N1        1.0  0.1699571915863665  0.03811330109938571  0.495668032874339  1.0000
  N   N2        1.0  0.3078997452577418  0.3831049849274506  0.3716673479791681  1.0000
  N   N3        1.0  0.20997653154303733  0.10274844583123155  0.637443681645536  1.0000
  N   N4        1.0  0.4352697298218716  0.3637780999865621  0.2786733867587187  1.0000
  O   O1        1.0  0.29404242582990303  0.5217369972379455  0.743934022365362  1.0000
  O   O2        1.0  0.9630771733297122  0.733245994867409  0.8397635265214617  1.0000
  O   O3        1.0  0.9873273626971459  0.49664590743393044  0.15731453377081872  1.0000
  O   O4        1.0  0.7213887527775716  0.26464999713647885  0.49665817835797366  1.0000
  O   O5        1.0  0.9924436521593003  0.9134052218857432  0.11342074855407747  1.0000
  O   O6        1.0  0.9748789067293938  0.27123373093593445  0.7615378761158734  1.0000
  O   O7        1.0  0.6401539778185299  0.5517037152553559  0.6129329285717238  1.0000
  O   O8        1.0  0.12844428817562573  0.25851439522501174  0.022589914808893274  1.0000
  O   O9        1.0  0.5124744240387604  0.06292352814603666  0.9285730558397806  1.0000
  O   O10       1.0  0.29311709936829855  0.8106877769406656  0.13597314051027853  1.0000
data_image151
_chemical_formula_structural       Cu2C6N4O10
_chemical_formula_sum              "Cu2 C6 N4 O10"
_cell_length_a       6.950721000000001
_cell_length_b       7.113486077992492
_cell_length_c       8.6539786637408
_cell_angle_alpha    105.43300670560022
_cell_angle_beta     90.64948243757532
_cell_angle_gamma    112.19062950933201

_space_group_name_H-M_alt    "P 1"
_space_group_IT_number       1

loop_
  _space_group_symop_operation_xyz
  'x, y, z'

loop_
  _atom_site_type_symbol
  _atom_site_label
  _atom_site_symmetry_multiplicity
  _atom_site_fract_x
  _atom_site_fract_y
  _atom_site_fract_z
  _atom_site_occupancy
  Cu  Cu1       1.0  0.6964147475526945  0.8116516488675726  0.21455096887811384  1.0000
  Cu  Cu2       1.0  0.6962522477460318  0.8148081216402256  0.7559664630520783  1.0000
  C   C1        1.0  0.06752935541568303  0.36650819375233534  0.7119434081888125  1.0000
  C   C2        1.0  0.051335094970279965  0.862746418005706  0.10410815747153301  1.0000
  C   C3        1.0  0.06425553353532834  0.32093938759217777  0.07584521010991085  1.0000
  C   C4        1.0  0.717345138639934  0.5298410766890633  0.5694422454007569  1.0000
  C   C5        1.0  0.6234290412471629  0.031216201730702317  0.7624657406144878  1.0000
  C   C6        1.0  0.43360120752026887  0.8474079862255598  0.2501023723407704  1.0000
  N   N1        1.0  0.21884800280278902  0.05556033327708776  0.5725738320519134  1.0000
  N   N2        1.0  0.36763151041475817  0.3214576061387877  0.3265485353594186  1.0000
  N   N3        1.0  0.12828857986014877  0.88898048535486  0.5645073986220992  1.0000
  N   N4        1.0  0.508377530940745  0.352230204727777  0.2560044955669678  1.0000
  O   O1        1.0  0.2226336287059033  0.4850499556361329  0.7766977425879901  1.0000
  O   O2        1.0  0.13113266938145438  0.7836043402192829  0.9972300354837453  1.0000
  O   O3        1.0  0.04327865543335969  0.4111025290880841  0.21266417988562492  1.0000
  O   O4        1.0  0.8550338975834758  0.6032617778729703  0.4938686026757466  1.0000
  O   O5        1.0  0.9775788315996023  0.9261066368392215  0.225833756531983  1.0000
  O   O6        1.0  0.8960236214739807  0.22620365955750582  0.6631674446237084  1.0000
  O   O7        1.0  0.5598442569564821  0.48388778475541017  0.6183256577380665  1.0000
  O   O8        1.0  0.0722064265128065  0.23365779167829737  0.9450904233674464  1.0000
  O   O9        1.0  0.5559755149500327  0.149944546083324  0.8045249171415909  1.0000
  O   O10       1.0  0.3321992753565461  0.9347596617770432  0.2656070119130249  1.0000
data_image152
_chemical_formula_structural       Cu2C6N4O10
_chemical_formula_sum              "Cu2 C6 N4 O10"
_cell_length_a       6.950721000000001
_cell_length_b       7.113486077992492
_cell_length_c       8.6539786637408
_cell_angle_alpha    105.43300670560022
_cell_angle_beta     90.64948243757532
_cell_angle_gamma    112.19062950933201

_space_group_name_H-M_alt    "P 1"
_space_group_IT_number       1

loop_
  _space_group_symop_operation_xyz
  'x, y, z'

loop_
  _atom_site_type_symbol
  _atom_site_label
  _atom_site_symmetry_multiplicity
  _atom_site_fract_x
  _atom_site_fract_y
  _atom_site_fract_z
  _atom_site_occupancy
  Cu  Cu1       1.0  0.7019946906241601  0.7538159099349986  0.16563491959980775  1.0000
  Cu  Cu2       1.0  0.6048033803135336  0.7547473358690276  0.7512331463590192  1.0000
  C   C1        1.0  0.09964841372348837  0.4046358587770761  0.6417403682440862  1.0000
  C   C2        1.0  0.026068973532016707  0.9244139863390887  0.17455094163924856  1.0000
  C   C3        1.0  0.9997894402476956  0.36506013326760933  0.1017590222193655  1.0000
  C   C4        1.0  0.7722386062078376  0.5648651556799886  0.5575767232679579  1.0000
  C   C5        1.0  0.6275512234501173  0.015014966136940663  0.8387910205330433  1.0000
  C   C6        1.0  0.46062624891758547  0.7647089082136576  0.19738353495333855  1.0000
  N   N1        1.0  0.30025835708594373  0.11560830883662643  0.6863633882275877  1.0000
  N   N2        1.0  0.47725569815727975  0.3760619097249842  0.24184844582730192  1.0000
  N   N3        1.0  0.17023785760368618  0.9462301789623564  0.6488869935288744  1.0000
  N   N4        1.0  0.4883126203518683  0.2344949464095385  0.14198359616658396  1.0000
  O   O1        1.0  0.16922007184522417  0.5560989737252973  0.748316123344106  1.0000
  O   O2        1.0  0.09927438023714903  0.9603078087392999  0.06353583935355434  1.0000
  O   O3        1.0  0.023859609126598163  0.5097511226612323  0.21873598201654532  1.0000
  O   O4        1.0  0.8598803826122152  0.6075802500410472  0.44647694973993335  1.0000
  O   O5        1.0  0.9427585591993529  0.9500570878829863  0.30002039302769345  1.0000
  O   O6        1.0  0.036514257986017526  0.2680948851372647  0.5233874097234535  1.0000
  O   O7        1.0  0.606462661422547  0.4907882967740542  0.620814546707402  1.0000
  O   O8        1.0  0.9913087750640438  0.20392332675727975  0.01964665866491111  1.0000
  O   O9        1.0  0.6167095426356997  0.17644212426561343  0.9056750379821862  1.0000
  O   O10       1.0  0.43369220005839804  0.8751645728894373  0.34042665583183596  1.0000
data_image153
_chemical_formula_structural       Cu2C6N4O10
_chemical_formula_sum              "Cu2 C6 N4 O10"
_cell_length_a       6.950721000000001
_cell_length_b       7.113486077992492
_cell_length_c       8.6539786637408
_cell_angle_alpha    105.43300670560022
_cell_angle_beta     90.64948243757532
_cell_angle_gamma    112.19062950933201

_space_group_name_H-M_alt    "P 1"
_space_group_IT_number       1

loop_
  _space_group_symop_operation_xyz
  'x, y, z'

loop_
  _atom_site_type_symbol
  _atom_site_label
  _atom_site_symmetry_multiplicity
  _atom_site_fract_x
  _atom_site_fract_y
  _atom_site_fract_z
  _atom_site_occupancy
  Cu  Cu1       1.0  0.6085817087808927  0.6072058351865319  0.09314383513081828  1.0000
  Cu  Cu2       1.0  0.5117160259757838  0.7440505574897527  0.7852045257691931  1.0000
  C   C1        1.0  0.22041320185828803  0.5503659150447255  0.7170947818148724  1.0000
  C   C2        1.0  0.05502350187162978  0.9093019615770748  0.1559660148186286  1.0000
  C   C3        1.0  0.9942965421749624  0.4330984708327026  0.16265381793032796  1.0000
  C   C4        1.0  0.8194442500327318  0.5348614615510925  0.5647210937485927  1.0000
  C   C5        1.0  0.6359502099220293  0.030169115886613494  0.8635147161741711  1.0000
  C   C6        1.0  0.5402860812666386  0.8188143786391252  0.195768434387011  1.0000
  N   N1        1.0  0.1773521377966494  0.957091468046763  0.604230022446568  1.0000
  N   N2        1.0  0.556292474651414  0.316010485995192  0.12277323050756259  1.0000
  N   N3        1.0  0.2363187440308213  0.0999688874283855  0.7268552339608461  1.0000
  N   N4        1.0  0.4211742969619974  0.35268618208683566  0.19930283388718145  1.0000
  O   O1        1.0  0.18468096659863364  0.6459044111870635  0.8444257261067142  1.0000
  O   O2        1.0  0.12675753880415883  0.8962404108894169  0.024208941195487332  1.0000
  O   O3        1.0  0.9988265939798717  0.6031368091106271  0.19071061516388443  1.0000
  O   O4        1.0  0.9662029910024229  0.4909999588160787  0.5337885079416795  1.0000
  O   O5        1.0  0.9826655887437894  0.9741965441697937  0.2712664503715647  1.0000
  O   O6        1.0  0.24835179586729264  0.4310682319079098  0.6002853389418458  1.0000
  O   O7        1.0  0.6570149750438864  0.5665039832340957  0.5873088367456178  1.0000
  O   O8        1.0  0.9234949159813475  0.24347808367459955  0.0860755288936621  1.0000
  O   O9        1.0  0.7038968153920672  0.1975841165571546  0.824213274519573  1.0000
  O   O10       1.0  0.5572527051742129  0.9467737222317512  0.31965495058844506  1.0000
data_image154
_chemical_formula_structural       Cu2C6N4O10
_chemical_formula_sum              "Cu2 C6 N4 O10"
_cell_length_a       6.950721000000001
_cell_length_b       7.113486077992492
_cell_length_c       8.6539786637408
_cell_angle_alpha    105.43300670560022
_cell_angle_beta     90.64948243757532
_cell_angle_gamma    112.19062950933201

_space_group_name_H-M_alt    "P 1"
_space_group_IT_number       1

loop_
  _space_group_symop_operation_xyz
  'x, y, z'

loop_
  _atom_site_type_symbol
  _atom_site_label
  _atom_site_symmetry_multiplicity
  _atom_site_fract_x
  _atom_site_fract_y
  _atom_site_fract_z
  _atom_site_occupancy
  Cu  Cu1       1.0  0.6477247438420863  0.5663547030713537  0.051704467616470115  1.0000
  Cu  Cu2       1.0  0.6275484544489456  0.8228070524904693  0.8714781130014161  1.0000
  C   C1        1.0  0.21894389057747177  0.49354340185574386  0.7623227854429035  1.0000
  C   C2        1.0  0.9719813327098326  0.025387392979446366  0.1954511731075892  1.0000
  C   C3        1.0  0.9208466352483291  0.4454360788130478  0.12839520281209915  1.0000
  C   C4        1.0  0.6769068837144135  0.5719707915159014  0.5554570483748499  1.0000
  C   C5        1.0  0.7110663784944173  0.9916586556275541  0.757478521365585  1.0000
  C   C6        1.0  0.5940349121932341  0.7944518654020419  0.15073240682530634  1.0000
  N   N1        1.0  0.1482412743524463  0.9967253284624196  0.6861455187240821  1.0000
  N   N2        1.0  0.3819261675308441  0.17242683783507307  0.12525575466501515  1.0000
  N   N3        1.0  0.26461504273945946  0.9214644668727333  0.687701448303573  1.0000
  N   N4        1.0  0.3925778691000452  0.33922982867903295  0.1427047031063499  1.0000
  O   O1        1.0  0.21124875978384416  0.6540718296465644  0.8538772082273465  1.0000
  O   O2        1.0  0.9322625769138106  0.8853218150633287  0.06850762068281457  1.0000
  O   O3        1.0  0.0683460473314481  0.5875559136689024  0.2155959298510629  1.0000
  O   O4        1.0  0.6366103996742399  0.4777130888815233  0.4184870267364691  1.0000
  O   O5        1.0  0.04808386454995358  0.14055032597204975  0.3200392560946028  1.0000
  O   O6        1.0  0.2297665603688344  0.3597244427196032  0.652851190634818  1.0000
  O   O7        1.0  0.7728276273533404  0.6300139259071886  0.6857811386154564  1.0000
  O   O8        1.0  0.8037373338158083  0.24983187508427873  0.06291001607302715  1.0000
  O   O9        1.0  0.8120210781188899  0.16277770566232205  0.7401233863286604  1.0000
  O   O10       1.0  0.5279378858043637  0.9258534300300503  0.17883477251659913  1.0000
data_image155
_chemical_formula_structural       Cu2C6N4O10
_chemical_formula_sum              "Cu2 C6 N4 O10"
_cell_length_a       6.950721000000001
_cell_length_b       7.113486077992492
_cell_length_c       8.6539786637408
_cell_angle_alpha    105.43300670560022
_cell_angle_beta     90.64948243757532
_cell_angle_gamma    112.19062950933201

_space_group_name_H-M_alt    "P 1"
_space_group_IT_number       1

loop_
  _space_group_symop_operation_xyz
  'x, y, z'

loop_
  _atom_site_type_symbol
  _atom_site_label
  _atom_site_symmetry_multiplicity
  _atom_site_fract_x
  _atom_site_fract_y
  _atom_site_fract_z
  _atom_site_occupancy
  Cu  Cu1       1.0  0.6462360174174839  0.5859995611678177  0.07457396777140317  1.0000
  Cu  Cu2       1.0  0.6760998753921623  0.784011746618921  0.9247322172021247  1.0000
  C   C1        1.0  0.22403153019567226  0.570835495991881  0.7041956785089682  1.0000
  C   C2        1.0  0.027975614743511755  0.002530813454808767  0.2653353050596947  1.0000
  C   C3        1.0  0.8557142713106324  0.4381079405345558  0.18878513598689295  1.0000
  C   C4        1.0  0.7215872191175003  0.5947327278664871  0.5130058491681225  1.0000
  C   C5        1.0  0.7096746093952017  0.9543650763844069  0.7874231060803051  1.0000
  C   C6        1.0  0.5315699921735849  0.811720420972496  0.17392491046594236  1.0000
  N   N1        1.0  0.44678817503320956  0.1024424792699894  0.6634981154959154  1.0000
  N   N2        1.0  0.32524688327859763  0.22449848175653742  0.9925591082365486  1.0000
  N   N3        1.0  0.3202457588592118  0.9681601173850084  0.5941072710971502  1.0000
  N   N4        1.0  0.2421343054782238  0.2879985973024315  0.927399875560199  1.0000
  O   O1        1.0  0.26036053919061275  0.7052621478917764  0.8172188658601255  1.0000
  O   O2        1.0  0.08063972851560591  0.9479438422232691  0.14016089341953775  1.0000
  O   O3        1.0  0.984636172056613  0.5794213878913494  0.28852971281957174  1.0000
  O   O4        1.0  0.5592734472938301  0.6148536743487074  0.486690725212967  1.0000
  O   O5        1.0  0.9279494458297791  0.04899530796450513  0.36056337292185847  1.0000
  O   O6        1.0  0.19373582896880515  0.4216079581463136  0.5867582442627659  1.0000
  O   O7        1.0  0.8718343741995396  0.5996219716955398  0.5781949334365661  1.0000
  O   O8        1.0  0.739323077376874  0.2660397167901998  0.10311935981303555  1.0000
  O   O9        1.0  0.7552357754505324  0.9772357342912956  0.6658830042866616  1.0000
  O   O10       1.0  0.37249639422992237  0.8157549999999341  0.2090170484749309  1.0000
data_image156
_chemical_formula_structural       Cu2C6N4O10
_chemical_formula_sum              "Cu2 C6 N4 O10"
_cell_length_a       6.950721000000001
_cell_length_b       7.113486077992492
_cell_length_c       8.6539786637408
_cell_angle_alpha    105.43300670560022
_cell_angle_beta     90.64948243757532
_cell_angle_gamma    112.19062950933201

_space_group_name_H-M_alt    "P 1"
_space_group_IT_number       1

loop_
  _space_group_symop_operation_xyz
  'x, y, z'

loop_
  _atom_site_type_symbol
  _atom_site_label
  _atom_site_symmetry_multiplicity
  _atom_site_fract_x
  _atom_site_fract_y
  _atom_site_fract_z
  _atom_site_occupancy
  Cu  Cu1       1.0  0.6294625427017042  0.4725466084123103  0.03822965946326462  1.0000
  Cu  Cu2       1.0  0.645880179969041  0.8215834576658237  0.8990953520690674  1.0000
  C   C1        1.0  0.22064937318580743  0.6453329666780888  0.8029553303936798  1.0000
  C   C2        1.0  0.0715955229233855  0.09007370898561229  0.34302415377551765  1.0000
  C   C3        1.0  0.7625530041759623  0.3333407864364928  0.17731837864870525  1.0000
  C   C4        1.0  0.7428819797949793  0.6083406890516472  0.5391971239187408  1.0000
  C   C5        1.0  0.7768582856767063  0.9125936494920096  0.7422402286679338  1.0000
  C   C6        1.0  0.5149312505612224  0.7557335982477681  0.09323544138998767  1.0000
  N   N1        1.0  0.5128657402813485  0.10270006555999323  0.5140360252975849  1.0000
  N   N2        1.0  0.2910994496439093  0.3850890417982873  0.927725364836704  1.0000
  N   N3        1.0  0.35103191920708443  0.0773114668901429  0.544406185127144  1.0000
  N   N4        1.0  0.18423905086635362  0.23176428526093185  0.9612983059134331  1.0000
  O   O1        1.0  0.09982307391165499  0.7129744913413169  0.8674903045615744  1.0000
  O   O2        1.0  0.18088839814470242  0.24103770095922417  0.2950633113932568  1.0000
  O   O3        1.0  0.9164494992036643  0.46974224756116256  0.17264943048381265  1.0000
  O   O4        1.0  0.6519466324851605  0.6390824395207186  0.43508176445198554  1.0000
  O   O5        1.0  0.9472215479205788  0.9616302961224935  0.3939367203105064  1.0000
  O   O6        1.0  0.2612705241669068  0.5169276720314349  0.7148326154717244  1.0000
  O   O7        1.0  0.8602616673472451  0.560561678834989  0.5938441121992053  1.0000
  O   O8        1.0  0.6566675585436276  0.18139216019295024  0.22737178006061343  1.0000
  O   O9        1.0  0.8556924421683874  0.0690161415222129  0.7118381782012202  1.0000
  O   O10       1.0  0.47813197164720084  0.7599672552415021  0.22276110261799895  1.0000
data_image157
_chemical_formula_structural       Cu2C6N4O10
_chemical_formula_sum              "Cu2 C6 N4 O10"
_cell_length_a       6.950721000000001
_cell_length_b       7.113486077992492
_cell_length_c       8.6539786637408
_cell_angle_alpha    105.43300670560022
_cell_angle_beta     90.64948243757532
_cell_angle_gamma    112.19062950933201

_space_group_name_H-M_alt    "P 1"
_space_group_IT_number       1

loop_
  _space_group_symop_operation_xyz
  'x, y, z'

loop_
  _atom_site_type_symbol
  _atom_site_label
  _atom_site_symmetry_multiplicity
  _atom_site_fract_x
  _atom_site_fract_y
  _atom_site_fract_z
  _atom_site_occupancy
  Cu  Cu1       1.0  0.6467796902902334  0.45936715910442916  0.006058281941090903  1.0000
  Cu  Cu2       1.0  0.6628670055021195  0.8472552251153587  0.9003464323208896  1.0000
  C   C1        1.0  0.09283901806278434  0.6850445158460935  0.8902238573849857  1.0000
  C   C2        1.0  0.12274583222464891  0.1987298563652511  0.356249540656308  1.0000
  C   C3        1.0  0.8931398446206436  0.3761240812062423  0.18578053065417832  1.0000
  C   C4        1.0  0.7118658818487243  0.552838944003397  0.5827361941823584  1.0000
  C   C5        1.0  0.6736661413606613  0.9111480975307171  0.715832037367506  1.0000
  C   C6        1.0  0.6150112568536007  0.7147854273461434  0.07906641605782773  1.0000
  N   N1        1.0  0.4282662866582932  0.9821887909113565  0.3917717639113363  1.0000
  N   N2        1.0  0.34637359566740433  0.15405896505985073  0.9593823181242086  1.0000
  N   N3        1.0  0.412139336407086  0.0372136115321835  0.5219510142890282  1.0000
  N   N4        1.0  0.21100326290553095  0.18924672963986877  0.953779165917796  1.0000
  O   O1        1.0  0.0918460819910516  0.7791158148832298  0.028665665083811964  1.0000
  O   O2        1.0  0.2238939625012925  0.3659202693583705  0.32045148580658234  1.0000
  O   O3        1.0  0.9507455731799905  0.5502700735303947  0.170532730485356  1.0000
  O   O4        1.0  0.6560041183872475  0.6046174713736294  0.47627656752744724  1.0000
  O   O5        1.0  0.018153165139179063  0.029294568875029237  0.36900456828068395  1.0000
  O   O6        1.0  0.12824234315552255  0.621365825083281  0.7548036353708534  1.0000
  O   O7        1.0  0.6520720909512321  0.4366867087962869  0.6636005787184494  1.0000
  O   O8        1.0  0.8144714347341546  0.19598577184931565  0.2100686751171501  1.0000
  O   O9        1.0  0.7048012118849453  0.0476934306935473  0.6612322316370827  1.0000
  O   O10       1.0  0.4695309442474363  0.7443400949269409  0.1252977730918222  1.0000
data_image158
_chemical_formula_structural       Cu2C6N4O10
_chemical_formula_sum              "Cu2 C6 N4 O10"
_cell_length_a       6.950721000000001
_cell_length_b       7.113486077992492
_cell_length_c       8.6539786637408
_cell_angle_alpha    105.43300670560022
_cell_angle_beta     90.64948243757532
_cell_angle_gamma    112.19062950933201

_space_group_name_H-M_alt    "P 1"
_space_group_IT_number       1

loop_
  _space_group_symop_operation_xyz
  'x, y, z'

loop_
  _atom_site_type_symbol
  _atom_site_label
  _atom_site_symmetry_multiplicity
  _atom_site_fract_x
  _atom_site_fract_y
  _atom_site_fract_z
  _atom_site_occupancy
  Cu  Cu1       1.0  0.689344505396164  0.5416777165233119  0.06369953472792504  1.0000
  Cu  Cu2       1.0  0.7732768135623763  0.8169541026072134  0.862709143172382  1.0000
  C   C1        1.0  0.10905310048166984  0.6727606599706868  0.8468162256983048  1.0000
  C   C2        1.0  0.18404291616268537  0.31136809771934315  0.35582899343306407  1.0000
  C   C3        1.0  0.7494108477345384  0.3562123870671967  0.26081154739577794  1.0000
  C   C4        1.0  0.6536931182848645  0.4572572817034364  0.594241053983164  1.0000
  C   C5        1.0  0.6811115777581627  0.9654307110698505  0.7395558098298415  1.0000
  C   C6        1.0  0.6024093094154677  0.7680168345140362  0.04340761829715868  1.0000
  N   N1        1.0  0.1738258514197245  0.8432664365632269  0.38351955541998084  1.0000
  N   N2        1.0  0.3639687599559086  0.16555451067934834  0.8309283551008805  1.0000
  N   N3        1.0  0.3100922488092902  0.9851444543618547  0.4507739316044084  1.0000
  N   N4        1.0  0.24388564988446615  0.16551134962519543  0.9190558352107361  1.0000
  O   O1        1.0  0.043797357699287616  0.8093746689240258  0.9062887199370271  1.0000
  O   O2        1.0  0.2774670729278231  0.30297777627333256  0.2396431589265826  1.0000
  O   O3        1.0  0.8764912721480633  0.5479672803793179  0.26951348381018825  1.0000
  O   O4        1.0  0.6148076296075455  0.48505738009426147  0.478669201051247  1.0000
  O   O5        1.0  0.11155781639094198  0.30482851805783073  0.47472883805616606  1.0000
  O   O6        1.0  0.16595072816419662  0.5474940485784472  0.8124869266884016  1.0000
  O   O7        1.0  0.6659871171015982  0.4368658797343046  0.7207323447407377  1.0000
  O   O8        1.0  0.6807807569585711  0.19096296862843642  0.2907409141122388  1.0000
  O   O9        1.0  0.5886346896654836  0.9010001348959517  0.6102142794291482  1.0000
  O   O10       1.0  0.4465156134580551  0.7536377248252438  0.08780153334044871  1.0000
data_image159
_chemical_formula_structural       Cu2C6N4O10
_chemical_formula_sum              "Cu2 C6 N4 O10"
_cell_length_a       6.950721000000001
_cell_length_b       7.113486077992492
_cell_length_c       8.6539786637408
_cell_angle_alpha    105.43300670560022
_cell_angle_beta     90.64948243757532
_cell_angle_gamma    112.19062950933201

_space_group_name_H-M_alt    "P 1"
_space_group_IT_number       1

loop_
  _space_group_symop_operation_xyz
  'x, y, z'

loop_
  _atom_site_type_symbol
  _atom_site_label
  _atom_site_symmetry_multiplicity
  _atom_site_fract_x
  _atom_site_fract_y
  _atom_site_fract_z
  _atom_site_occupancy
  Cu  Cu1       1.0  0.8305066947770354  0.77275531293701  0.17419371130895736  1.0000
  Cu  Cu2       1.0  0.8402553387831249  0.8965122262522597  0.8772765153809534  1.0000
  C   C1        1.0  0.08013333803312374  0.47750808478820933  0.7986361983088986  1.0000
  C   C2        1.0  0.1398117537868677  0.36327432143853255  0.35955036787031625  1.0000
  C   C3        1.0  0.6574681706361938  0.2110894168558164  0.22538205594502803  1.0000
  C   C4        1.0  0.6249787319236552  0.40784094614849065  0.5627400379182276  1.0000
  C   C5        1.0  0.6172340957660429  0.9263712474427364  0.7582159539469735  1.0000
  C   C6        1.0  0.6262114176263454  0.8132706207936942  0.04607491316762985  1.0000
  N   N1        1.0  0.03299787493106943  0.7220531659807485  0.3702281561259235  1.0000
  N   N2        1.0  0.3062594962628892  0.08154485018484081  0.7973228966333582  1.0000
  N   N3        1.0  0.18045003142531046  0.870861711920064  0.37377916558685986  1.0000
  N   N4        1.0  0.3431510667378349  0.16863037402249637  0.9328700933864318  1.0000
  O   O1        1.0  0.08706598248355953  0.6569992252514499  0.8159944071931275  1.0000
  O   O2        1.0  0.2232549570890815  0.2901903298414612  0.2626419703040024  1.0000
  O   O3        1.0  0.6329006122621993  0.2793331345451713  0.130306624956115  1.0000
  O   O4        1.0  0.5697859096025971  0.44961806338433563  0.4469405832417037  1.0000
  O   O5        1.0  0.13000619002111663  0.46991992994093845  0.4880945332462201  1.0000
  O   O6        1.0  0.03316434460468653  0.30111136690349005  0.7669828924245132  1.0000
  O   O7        1.0  0.7296687266996413  0.3964827623046321  0.6693441062796253  1.0000
  O   O8        1.0  0.6635458915317525  0.13417067003740768  0.31985840862107917  1.0000
  O   O9        1.0  0.5011701916957548  0.8744554700833449  0.6436839467539238  1.0000
  O   O10       1.0  0.44691043384238244  0.7206591382888694  0.01549685911634037  1.0000
data_image160
_chemical_formula_structural       Cu2C6N4O10
_chemical_formula_sum              "Cu2 C6 N4 O10"
_cell_length_a       6.950721000000001
_cell_length_b       7.113486077992492
_cell_length_c       8.6539786637408
_cell_angle_alpha    105.43300670560022
_cell_angle_beta     90.64948243757532
_cell_angle_gamma    112.19062950933201

_space_group_name_H-M_alt    "P 1"
_space_group_IT_number       1

loop_
  _space_group_symop_operation_xyz
  'x, y, z'

loop_
  _atom_site_type_symbol
  _atom_site_label
  _atom_site_symmetry_multiplicity
  _atom_site_fract_x
  _atom_site_fract_y
  _atom_site_fract_z
  _atom_site_occupancy
  Cu  Cu1       1.0  0.8822495623105366  0.7727200711033092  0.12627268455830426  1.0000
  Cu  Cu2       1.0  0.8612143530709186  0.9609368997375345  0.9399484510254783  1.0000
  C   C1        1.0  0.05433690292856311  0.4617381206994189  0.7612409260927496  1.0000
  C   C2        1.0  0.12185845592799852  0.3505415813742354  0.32658510516693107  1.0000
  C   C3        1.0  0.6471027693325098  0.09724866827500778  0.21037333681283388  1.0000
  C   C4        1.0  0.5894611341266003  0.42954997103411574  0.6040505994064198  1.0000
  C   C5        1.0  0.6970887509863297  0.9715023763465679  0.775931204696948  1.0000
  C   C6        1.0  0.5889028829906621  0.5996388473231817  0.9527013132401648  1.0000
  N   N1        1.0  0.07659903317440504  0.9410650044235402  0.47107380275764443  1.0000
  N   N2        1.0  0.22651402927975572  0.044015385638974  0.819116374320574  1.0000
  N   N3        1.0  0.17949636381675385  0.9143856279846198  0.38379613939484636  1.0000
  N   N4        1.0  0.15140879811899666  0.09253523742281988  0.9281923980664782  1.0000
  O   O1        1.0  0.036745221610322766  0.61451376647464  0.8406170691578279  1.0000
  O   O2        1.0  0.049672277105354476  0.19057459309290592  0.22036681156877047  1.0000
  O   O3        1.0  0.6662283781887439  0.10977787390713556  0.060806885346309736  1.0000
  O   O4        1.0  0.6585618685734178  0.5462424640132333  0.5247501050770356  1.0000
  O   O5        1.0  0.20511492556031152  0.5216512804309343  0.429411494193187  1.0000
  O   O6        1.0  0.06486927943025232  0.30221841729618326  0.6611592212483232  1.0000
  O   O7        1.0  0.5985836210944437  0.3653796182200397  0.7178557192084429  1.0000
  O   O8        1.0  0.6830948936908662  0.0905119269104131  0.3381293520018074  1.0000
  O   O9        1.0  0.5629799304870933  0.003251700132031793  0.7320145488712023  1.0000
  O   O10       1.0  0.43466307739280374  0.6554118479374392  0.9511078512078115  1.0000
data_image161
_chemical_formula_structural       Cu2C6N4O10
_chemical_formula_sum              "Cu2 C6 N4 O10"
_cell_length_a       6.950721000000001
_cell_length_b       7.113486077992492
_cell_length_c       8.6539786637408
_cell_angle_alpha    105.43300670560022
_cell_angle_beta     90.64948243757532
_cell_angle_gamma    112.19062950933201

_space_group_name_H-M_alt    "P 1"
_space_group_IT_number       1

loop_
  _space_group_symop_operation_xyz
  'x, y, z'

loop_
  _atom_site_type_symbol
  _atom_site_label
  _atom_site_symmetry_multiplicity
  _atom_site_fract_x
  _atom_site_fract_y
  _atom_site_fract_z
  _atom_site_occupancy
  Cu  Cu1       1.0  0.8431518856526234  0.683128334045424  0.08537964705697859  1.0000
  Cu  Cu2       1.0  0.8400770678650663  0.9504213133784145  0.9275400731346245  1.0000
  C   C1        1.0  0.026778633469086165  0.486348562422048  0.6947541129129663  1.0000
  C   C2        1.0  0.2693247322724231  0.4328900177667052  0.29720746732732706  1.0000
  C   C3        1.0  0.5670872121962143  0.051992929524662834  0.2696452486585563  1.0000
  C   C4        1.0  0.5920026463205049  0.5215627712861035  0.5786503702400365  1.0000
  C   C5        1.0  0.8111847895531811  0.13704982338020735  0.8221981678789384  1.0000
  C   C6        1.0  0.5572523471561067  0.6332191940384125  0.9554859403499234  1.0000
  N   N1        1.0  0.2112663215110048  0.928322557630412  0.5762035713036031  1.0000
  N   N2        1.0  0.294613620500622  0.11475990311472861  0.9151832325448318  1.0000
  N   N3        1.0  0.20374974105417382  0.9683425593871293  0.4613301439666122  1.0000
  N   N4        1.0  0.15587024958440432  0.987527463464209  0.9492496520758036  1.0000
  O   O1        1.0  0.9910413297334458  0.5783120475688932  0.8104183750930136  1.0000
  O   O2        1.0  0.1573075963910242  0.36351100162528827  0.17506680369347682  1.0000
  O   O3        1.0  0.5116776961189515  0.020702878420146842  0.12462766129792446  1.0000
  O   O4        1.0  0.7407752208730252  0.5748012496052635  0.5094752440452027  1.0000
  O   O5        1.0  0.3229656361084492  0.5309225190658422  0.4394712477754268  1.0000
  O   O6        1.0  0.034062356072299994  0.31103944946078815  0.608802334496784  1.0000
  O   O7        1.0  0.4606235927793459  0.4584807320910327  0.6645879464974291  1.0000
  O   O8        1.0  0.6054860303881803  0.036369050575731254  0.3945617691327181  1.0000
  O   O9        1.0  0.6811214636058062  0.11640087077618393  0.722624932672532  1.0000
  O   O10       1.0  0.3959712160172498  0.536358077998855  0.9848689809771694  1.0000
data_image162
_chemical_formula_structural       Cu2C6N4O10
_chemical_formula_sum              "Cu2 C6 N4 O10"
_cell_length_a       6.950721000000001
_cell_length_b       7.113486077992492
_cell_length_c       8.6539786637408
_cell_angle_alpha    105.43300670560022
_cell_angle_beta     90.64948243757532
_cell_angle_gamma    112.19062950933201

_space_group_name_H-M_alt    "P 1"
_space_group_IT_number       1

loop_
  _space_group_symop_operation_xyz
  'x, y, z'

loop_
  _atom_site_type_symbol
  _atom_site_label
  _atom_site_symmetry_multiplicity
  _atom_site_fract_x
  _atom_site_fract_y
  _atom_site_fract_z
  _atom_site_occupancy
  Cu  Cu1       1.0  0.9124953013303221  0.6647834583753989  0.056479948008360335  1.0000
  Cu  Cu2       1.0  0.8189091375440949  0.9330351714052675  0.9683113863784102  1.0000
  C   C1        1.0  0.0534506966046334  0.4506569417757294  0.6380340739763154  1.0000
  C   C2        1.0  0.25882121579756057  0.5282904756092157  0.30940892502219164  1.0000
  C   C3        1.0  0.489298869319579  0.08084958587087132  0.309132818631524  1.0000
  C   C4        1.0  0.6256642992334835  0.46316350737352474  0.6111583889682956  1.0000
  C   C5        1.0  0.6471641806951342  0.036640090871459315  0.7454648258634872  1.0000
  C   C6        1.0  0.6198192166361445  0.6681538432841344  0.9849025808832208  1.0000
  N   N1        1.0  0.14144342066832413  0.8038686295059836  0.46502285308293656  1.0000
  N   N2        1.0  0.26341975887237346  0.00368643405590241  0.8855977616668071  1.0000
  N   N3        1.0  0.05146552282342984  0.8834251499432877  0.4215199278576036  1.0000
  N   N4        1.0  0.13605938020814057  0.07144507062660832  0.9015765986083213  1.0000
  O   O1        1.0  0.06653725264467653  0.606461435532377  0.7631349045399941  1.0000
  O   O2        1.0  0.12397898302399592  0.4597369127803901  0.17489082077485008  1.0000
  O   O3        1.0  0.33350604118875027  0.1053072317928212  0.23564086079735325  1.0000
  O   O4        1.0  0.7014157441867631  0.5543179329726218  0.5106159232067998  1.0000
  O   O5        1.0  0.40820440190877894  0.6247596910315636  0.4136278243329854  1.0000
  O   O6        1.0  0.0620262399128863  0.3524617383860721  0.5093022157578037  1.0000
  O   O7        1.0  0.5203678562343261  0.3777981287304324  0.6956409367526151  1.0000
  O   O8        1.0  0.609181327362126  0.048886199423595844  0.374781416868357  1.0000
  O   O9        1.0  0.741404855870441  0.15079522317901065  0.8693279390302807  1.0000
  O   O10       1.0  0.48044925415793827  0.6246520038093641  0.05646859399300311  1.0000
data_image163
_chemical_formula_structural       Cu2C6N4O10
_chemical_formula_sum              "Cu2 C6 N4 O10"
_cell_length_a       6.950721000000001
_cell_length_b       7.113486077992492
_cell_length_c       8.6539786637408
_cell_angle_alpha    105.43300670560022
_cell_angle_beta     90.64948243757532
_cell_angle_gamma    112.19062950933201

_space_group_name_H-M_alt    "P 1"
_space_group_IT_number       1

loop_
  _space_group_symop_operation_xyz
  'x, y, z'

loop_
  _atom_site_type_symbol
  _atom_site_label
  _atom_site_symmetry_multiplicity
  _atom_site_fract_x
  _atom_site_fract_y
  _atom_site_fract_z
  _atom_site_occupancy
  Cu  Cu1       1.0  0.958013037831764  0.7078574548385995  0.12649201592866335  1.0000
  Cu  Cu2       1.0  0.8205004244210687  0.9148081084071713  0.009023890384567412  1.0000
  C   C1        1.0  0.1119878891748656  0.41592632618954334  0.6296363064110162  1.0000
  C   C2        1.0  0.0967932181895029  0.5224081369166358  0.23526954592450466  1.0000
  C   C3        1.0  0.47728592107073653  0.1814975193783952  0.2906954912793137  1.0000
  C   C4        1.0  0.5859969117040131  0.4557388172567436  0.635950680924453  1.0000
  C   C5        1.0  0.7361231594722202  0.9443766641584794  0.6482520222927677  1.0000
  C   C6        1.0  0.7210219198732988  0.6133089303873862  0.9746674322729904  1.0000
  N   N1        1.0  0.17839942241354242  0.9759338440267622  0.5026182783188142  1.0000
  N   N2        1.0  0.23569210295707232  0.12426452782686148  0.9195796748166651  1.0000
  N   N3        1.0  0.023014575827221023  0.8591033937746265  0.4467094452906921  1.0000
  N   N4        1.0  0.14595811207163756  0.01710350249205783  0.7962826761842344  1.0000
  O   O1        1.0  0.16490888297379772  0.5256470264426091  0.7781264934800897  1.0000
  O   O2        1.0  0.008024220428441923  0.38709533980623223  0.11185851394099133  1.0000
  O   O3        1.0  0.35965680911404696  0.25657587324276365  0.2831093106826208  1.0000
  O   O4        1.0  0.759290384846345  0.5611405805042549  0.6308763930396388  1.0000
  O   O5        1.0  0.23020590892579576  0.6430663711622315  0.34332062998509527  1.0000
  O   O6        1.0  0.03997121552640422  0.33582470975734596  0.49266431245817044  1.0000
  O   O7        1.0  0.4073700889823299  0.3362755430902542  0.6690077116669297  1.0000
  O   O8        1.0  0.6036897557185333  0.11217981833431767  0.2856534064005807  1.0000
  O   O9        1.0  0.7242762253470152  0.07348402251874006  0.755119727202722  1.0000
  O   O10       1.0  0.5490473005784948  0.4570733221313522  0.9633284714688232  1.0000
data_image164
_chemical_formula_structural       Cu2C6N4O10
_chemical_formula_sum              "Cu2 C6 N4 O10"
_cell_length_a       6.950721000000001
_cell_length_b       7.113486077992492
_cell_length_c       8.6539786637408
_cell_angle_alpha    105.43300670560022
_cell_angle_beta     90.64948243757532
_cell_angle_gamma    112.19062950933201

_space_group_name_H-M_alt    "P 1"
_space_group_IT_number       1

loop_
  _space_group_symop_operation_xyz
  'x, y, z'

loop_
  _atom_site_type_symbol
  _atom_site_label
  _atom_site_symmetry_multiplicity
  _atom_site_fract_x
  _atom_site_fract_y
  _atom_site_fract_z
  _atom_site_occupancy
  Cu  Cu1       1.0  0.9825542738609494  0.782393161661211  0.14651064400102773  1.0000
  Cu  Cu2       1.0  0.8454529043274859  0.9016299770011705  0.9760165261926818  1.0000
  C   C1        1.0  0.1486384862713434  0.5102415995283968  0.683754927651148  1.0000
  C   C2        1.0  0.00047116118771534755  0.3310762496760826  0.17556776306736022  1.0000
  C   C3        1.0  0.5262387488945699  0.09027164551603661  0.2745404776058963  1.0000
  C   C4        1.0  0.5710647916884773  0.4548972214112752  0.6348612687665314  1.0000
  C   C5        1.0  0.6427843381067055  0.9906030378242049  0.5589887054309972  1.0000
  C   C6        1.0  0.6831027855269806  0.6611477741249779  0.06740852771670047  1.0000
  N   N1        1.0  0.12247765181031167  0.9577868987828119  0.5222692812714909  1.0000
  N   N2        1.0  0.26072154440884265  0.14974772525347513  0.8732557932983128  1.0000
  N   N3        1.0  0.14931712094638233  0.960148109077943  0.40019640132375045  1.0000
  N   N4        1.0  0.149094785089132  0.04234941102512835  0.9392691463861783  1.0000
  O   O1        1.0  0.29487486857639306  0.6643698922357473  0.7566600350674045  1.0000
  O   O2        1.0  0.8365688376072062  0.20192213317721408  0.08888496895970421  1.0000
  O   O3        1.0  0.4247408825313127  0.18684557995523088  0.2545134950596525  1.0000
  O   O4        1.0  0.7151355231755644  0.5990766126890399  0.7118884965080392  1.0000
  O   O5        1.0  0.09444582369315967  0.4841734219967524  0.274440439818439  1.0000
  O   O6        1.0  0.9979882202954183  0.3630478757949814  0.6131378693601127  1.0000
  O   O7        1.0  0.4036174456570086  0.3384118297630667  0.5446047912180141  1.0000
  O   O8        1.0  0.6170594193272806  0.006605714107601246  0.3062013472774572  1.0000
  O   O9        1.0  0.7225545752923273  0.05247768502595585  0.6939496063246209  1.0000
  O   O10       1.0  0.5713516601904893  0.5042552320859893  0.08042305848167167  1.0000
data_image165
_chemical_formula_structural       Cu2C6N4O10
_chemical_formula_sum              "Cu2 C6 N4 O10"
_cell_length_a       6.950721000000001
_cell_length_b       7.113486077992492
_cell_length_c       8.6539786637408
_cell_angle_alpha    105.43300670560022
_cell_angle_beta     90.64948243757532
_cell_angle_gamma    112.19062950933201

_space_group_name_H-M_alt    "P 1"
_space_group_IT_number       1

loop_
  _space_group_symop_operation_xyz
  'x, y, z'

loop_
  _atom_site_type_symbol
  _atom_site_label
  _atom_site_symmetry_multiplicity
  _atom_site_fract_x
  _atom_site_fract_y
  _atom_site_fract_z
  _atom_site_occupancy
  Cu  Cu1       1.0  0.028877076403846402  0.8397620394873473  0.18887050413718467  1.0000
  Cu  Cu2       1.0  0.8380379392800781  0.9205298642490702  0.03260314329715408  1.0000
  C   C1        1.0  0.1742838445008696  0.6159618346218042  0.7065995426624092  1.0000
  C   C2        1.0  0.999445657650216  0.320970654201709  0.15089089602058903  1.0000
  C   C3        1.0  0.5119102642661909  0.03351097198837949  0.15202637767657956  1.0000
  C   C4        1.0  0.5418458803441792  0.5044987300017312  0.6780970330471978  1.0000
  C   C5        1.0  0.6867773019118408  0.107377087877197  0.6567915689727283  1.0000
  C   C6        1.0  0.7348270679884322  0.7017673780935182  0.14916050946215742  1.0000
  N   N1        1.0  0.05558597525935989  0.8605981920772424  0.5320201390798245  1.0000
  N   N2        1.0  0.18090328993004667  0.10416297899911964  0.8285829180107078  1.0000
  N   N3        1.0  0.07386556221513159  0.8043510862852487  0.4044359090004743  1.0000
  N   N4        1.0  0.05778685311764098  0.9669590245736617  0.8661922468372446  1.0000
  O   O1        1.0  0.34945170209379145  0.7202367041194407  0.7091778291390561  1.0000
  O   O2        1.0  0.8453192922888303  0.2971559057402424  0.07383323078147308  1.0000
  O   O3        1.0  0.420497900299437  0.9642181231393967  0.023367160093807016  1.0000
  O   O4        1.0  0.6804954196224902  0.6690190934641644  0.7598770042685695  1.0000
  O   O5        1.0  0.15579426059092935  0.28335144501912524  0.16239121701658976  1.0000
  O   O6        1.0  0.012786053971728079  0.48230513567608  0.7083287164130696  1.0000
  O   O7        1.0  0.44287092563314423  0.36260873423899165  0.5819266547238486  1.0000
  O   O8        1.0  0.5665255598260095  0.0026012998745572613  0.2749663081312286  1.0000
  O   O9        1.0  0.6077511551663615  0.951413527825169  0.5562911801858739  1.0000
  O   O10       1.0  0.6599074384721282  0.507246945639338  0.09901157498687958  1.0000
data_image166
_chemical_formula_structural       Cu2C6N4O10
_chemical_formula_sum              "Cu2 C6 N4 O10"
_cell_length_a       6.950721000000001
_cell_length_b       7.113486077992492
_cell_length_c       8.6539786637408
_cell_angle_alpha    105.43300670560022
_cell_angle_beta     90.64948243757532
_cell_angle_gamma    112.19062950933201

_space_group_name_H-M_alt    "P 1"
_space_group_IT_number       1

loop_
  _space_group_symop_operation_xyz
  'x, y, z'

loop_
  _atom_site_type_symbol
  _atom_site_label
  _atom_site_symmetry_multiplicity
  _atom_site_fract_x
  _atom_site_fract_y
  _atom_site_fract_z
  _atom_site_occupancy
  Cu  Cu1       1.0  0.09537025130217014  0.8760248201047942  0.2123273930479423  1.0000
  Cu  Cu2       1.0  0.8630954169885423  0.9620381183402418  0.012648923266544765  1.0000
  C   C1        1.0  0.04041613856447704  0.5459538117031365  0.7595906783285918  1.0000
  C   C2        1.0  0.15789396059842073  0.27781656491648143  0.18753792138341763  1.0000
  C   C3        1.0  0.393907228939537  0.9054314041241129  0.11063304275600594  1.0000
  C   C4        1.0  0.47978012140090837  0.49349663443263525  0.6477376364847263  1.0000
  C   C5        1.0  0.7337913588617613  0.08040768361566068  0.7451232294528186  1.0000
  C   C6        1.0  0.7724649833319123  0.7611748552730514  0.10382703914223701  1.0000
  N   N1        1.0  0.9292723876397971  0.624540081256983  0.40252913079196295  1.0000
  N   N2        1.0  0.24404615318935385  0.15576612448127802  0.8471577061442269  1.0000
  N   N3        1.0  0.022035412619317424  0.7535768255818087  0.3513180416341819  1.0000
  N   N4        1.0  0.05325834855346234  0.09592069528296321  0.830156724911282  1.0000
  O   O1        1.0  0.1374604481800589  0.6152528371353221  0.654648095359837  1.0000
  O   O2        1.0  0.9839748243726582  0.2527786796284428  0.14469484586737247  1.0000
  O   O3        1.0  0.3236601495225683  0.7766724353752918  0.9474398618649273  1.0000
  O   O4        1.0  0.6297775029765752  0.6626902593856863  0.6812405938853471  1.0000
  O   O5        1.0  0.30886540539200297  0.2890165160376692  0.26021968771297965  1.0000
  O   O6        1.0  0.9304019462474381  0.5008188399337394  0.8660689008819173  1.0000
  O   O7        1.0  0.3625631836921183  0.3202211042029417  0.6189208478744919  1.0000
  O   O8        1.0  0.5433661676270155  0.06136077439721754  0.20541687995846036  1.0000
  O   O9        1.0  0.7107078007999543  0.08187515758151548  0.6094054495226306  1.0000
  O   O10       1.0  0.6020268623024272  0.6267265808608163  0.08028084440858757  1.0000
data_image167
_chemical_formula_structural       Cu2C6N4O10
_chemical_formula_sum              "Cu2 C6 N4 O10"
_cell_length_a       6.950721000000001
_cell_length_b       7.113486077992492
_cell_length_c       8.6539786637408
_cell_angle_alpha    105.43300670560022
_cell_angle_beta     90.64948243757532
_cell_angle_gamma    112.19062950933201

_space_group_name_H-M_alt    "P 1"
_space_group_IT_number       1

loop_
  _space_group_symop_operation_xyz
  'x, y, z'

loop_
  _atom_site_type_symbol
  _atom_site_label
  _atom_site_symmetry_multiplicity
  _atom_site_fract_x
  _atom_site_fract_y
  _atom_site_fract_z
  _atom_site_occupancy
  Cu  Cu1       1.0  0.1390592088700835  0.9293467349910597  0.15255786305740235  1.0000
  Cu  Cu2       1.0  0.9254479254040615  0.9866621256896738  0.9784359382054825  1.0000
  C   C1        1.0  0.879892151805688  0.4699595441417277  0.8018578299405252  1.0000
  C   C2        1.0  0.1702156617470754  0.39465127247310083  0.24330521919449777  1.0000
  C   C3        1.0  0.41704357587548324  0.8851056345562975  0.07128032219166014  1.0000
  C   C4        1.0  0.4846801915965604  0.4763352733388424  0.6483018418959365  1.0000
  C   C5        1.0  0.7028769664437177  0.9264660186916741  0.677990735951021  1.0000
  C   C6        1.0  0.7800014287173179  0.8230741716469023  0.13520168032903362  1.0000
  N   N1        1.0  0.705975527084115  0.4741489848162006  0.3848083614519515  1.0000
  N   N2        1.0  0.23607928700254055  0.13108745154416246  0.9539261856947985  1.0000
  N   N3        1.0  0.8785343706497134  0.5676528976690822  0.4263345629475739  1.0000
  N   N4        1.0  0.19050459641239947  0.12128994916646363  0.822312528434495  1.0000
  O   O1        1.0  0.015680906566527715  0.5648221765295209  0.7239884876463014  1.0000
  O   O2        1.0  0.05604262507511635  0.40552256227065175  0.15815740428159653  1.0000
  O   O3        1.0  0.3841963280189087  0.77079065929088  0.9414203918454767  1.0000
  O   O4        1.0  0.6587017821802121  0.6261022838602028  0.6846401084003259  1.0000
  O   O5        1.0  0.3058379202502886  0.43522485569447  0.3546129095527333  1.0000
  O   O6        1.0  0.7268897420934053  0.4066891071763539  0.8595234284997899  1.0000
  O   O7        1.0  0.3531776391887755  0.31380424972058285  0.6358859848011036  1.0000
  O   O8        1.0  0.5492261820912203  0.026320477528297026  0.183909058535477  1.0000
  O   O9        1.0  0.7310615163234824  0.9729341202772546  0.5540386718345803  1.0000
  O   O10       1.0  0.6500968150436072  0.7232227059459682  0.1917987290580138  1.0000
data_image168
_chemical_formula_structural       Cu2C6N4O10
_chemical_formula_sum              "Cu2 C6 N4 O10"
_cell_length_a       6.950721000000001
_cell_length_b       7.113486077992492
_cell_length_c       8.6539786637408
_cell_angle_alpha    105.43300670560022
_cell_angle_beta     90.64948243757532
_cell_angle_gamma    112.19062950933201

_space_group_name_H-M_alt    "P 1"
_space_group_IT_number       1

loop_
  _space_group_symop_operation_xyz
  'x, y, z'

loop_
  _atom_site_type_symbol
  _atom_site_label
  _atom_site_symmetry_multiplicity
  _atom_site_fract_x
  _atom_site_fract_y
  _atom_site_fract_z
  _atom_site_occupancy
  Cu  Cu1       1.0  0.22727465797141244  0.9801301979417444  0.1045007777532221  1.0000
  Cu  Cu2       1.0  0.9177120109632396  0.9438090038863368  0.9551542567428494  1.0000
  C   C1        1.0  0.8190554724798866  0.36128161014503735  0.8765913221355139  1.0000
  C   C2        1.0  0.19127164880618797  0.60229977291745  0.2953460077694685  1.0000
  C   C3        1.0  0.49636211359506366  0.8401673407769543  0.0977815214194575  1.0000
  C   C4        1.0  0.40345937063108933  0.491259244528526  0.6663687054937093  1.0000
  C   C5        1.0  0.7629610904794862  0.11559251129368218  0.5198984858381662  1.0000
  C   C6        1.0  0.9573799059874905  0.8485092164660527  0.15532692118235888  1.0000
  N   N1        1.0  0.6536313806252381  0.4648564556407008  0.3427179032142649  1.0000
  N   N2        1.0  0.18554188481868994  0.11146610596332795  0.8018036728650724  1.0000
  N   N3        1.0  0.6938232164117832  0.43107328183993987  0.45304442755173713  1.0000
  N   N4        1.0  0.1308679522845071  0.9351499221917734  0.7460495565137525  1.0000
  O   O1        1.0  0.0011146510570264896  0.4442226199052515  0.9086120723989728  1.0000
  O   O2        1.0  0.023818158025207127  0.5985300977553203  0.2648727671191258  1.0000
  O   O3        1.0  0.40631318220692536  0.6479729166523032  0.05785865629049991  1.0000
  O   O4        1.0  0.5041672479511725  0.6661832209898526  0.7520387935663934  1.0000
  O   O5        1.0  0.36453057986383747  0.6418466794412638  0.35427328135499714  1.0000
  O   O6        1.0  0.6382377934112978  0.2263235138636061  0.8584921237673386  1.0000
  O   O7        1.0  0.2587312425789458  0.3303425125433266  0.6356115695608608  1.0000
  O   O8        1.0  0.5791626789115177  0.0410529284015384  0.16741061377193223  1.0000
  O   O9        1.0  0.6679497245998418  0.9894483922657594  0.5742845768145076  1.0000
  O   O10       1.0  0.8191302117103337  0.7232561436274043  0.18973332744632065  1.0000
data_image169
_chemical_formula_structural       Cu2C6N4O10
_chemical_formula_sum              "Cu2 C6 N4 O10"
_cell_length_a       6.950721000000001
_cell_length_b       7.113486077992492
_cell_length_c       8.6539786637408
_cell_angle_alpha    105.43300670560022
_cell_angle_beta     90.64948243757532
_cell_angle_gamma    112.19062950933201

_space_group_name_H-M_alt    "P 1"
_space_group_IT_number       1

loop_
  _space_group_symop_operation_xyz
  'x, y, z'

loop_
  _atom_site_type_symbol
  _atom_site_label
  _atom_site_symmetry_multiplicity
  _atom_site_fract_x
  _atom_site_fract_y
  _atom_site_fract_z
  _atom_site_occupancy
  Cu  Cu1       1.0  0.19143337197009025  0.882293801814341  0.1468136999873068  1.0000
  Cu  Cu2       1.0  0.9780641279347271  0.9520173059609228  0.900841389422478  1.0000
  C   C1        1.0  0.8220204295716802  0.36135095341812723  0.9898596824914602  1.0000
  C   C2        1.0  0.22318014580579215  0.6003792661216258  0.3706612602827475  1.0000
  C   C3        1.0  0.41649478891790326  0.7920522086355244  0.0790300346939743  1.0000
  C   C4        1.0  0.4331984853192734  0.6011200316003726  0.7525019384256846  1.0000
  C   C5        1.0  0.7528128613501521  0.09154466265553361  0.4138415124645757  1.0000
  C   C6        1.0  0.9360933280547056  0.8966830936665979  0.09951435642196318  1.0000
  N   N1        1.0  0.5619311312555297  0.3977845146345661  0.3710776089495358  1.0000
  N   N2        1.0  0.08827120498252783  0.9747967934604524  0.6463780577016244  1.0000
  N   N3        1.0  0.6957283232154865  0.5576547429524833  0.40948276091660607  1.0000
  N   N4        1.0  0.15932292439913576  0.8574468904655985  0.6343844369248068  1.0000
  O   O1        1.0  0.9145438119361825  0.2946538748530913  0.89762845449404  1.0000
  O   O2        1.0  0.12914355050537804  0.6166807473967106  0.26320924893057973  1.0000
  O   O3        1.0  0.39898399788056893  0.61988733713086  0.0599701265108018  1.0000
  O   O4        1.0  0.5929588749075185  0.7498747284176184  0.7759053426400506  1.0000
  O   O5        1.0  0.36868896505392623  0.6443526241890034  0.46116041952868736  1.0000
  O   O6        1.0  0.7232878488966723  0.4656914887821061  0.06085078341251138  1.0000
  O   O7        1.0  0.2581446800117862  0.4747860897716216  0.7021541047776783  1.0000
  O   O8        1.0  0.44465655978409013  0.980415013991037  0.05619943199227895  1.0000
  O   O9        1.0  0.6988410717084328  0.006039267499662758  0.5142473699206894  1.0000
  O   O10       1.0  0.8172407972172433  0.8826310117972928  0.19699435710122146  1.0000
data_image170
_chemical_formula_structural       Cu2C6N4O10
_chemical_formula_sum              "Cu2 C6 N4 O10"
_cell_length_a       6.950721000000001
_cell_length_b       7.113486077992492
_cell_length_c       8.6539786637408
_cell_angle_alpha    105.43300670560022
_cell_angle_beta     90.64948243757532
_cell_angle_gamma    112.19062950933201

_space_group_name_H-M_alt    "P 1"
_space_group_IT_number       1

loop_
  _space_group_symop_operation_xyz
  'x, y, z'

loop_
  _atom_site_type_symbol
  _atom_site_label
  _atom_site_symmetry_multiplicity
  _atom_site_fract_x
  _atom_site_fract_y
  _atom_site_fract_z
  _atom_site_occupancy
  Cu  Cu1       1.0  0.1138867060596982  0.8012401857464064  0.15823225020935613  1.0000
  Cu  Cu2       1.0  0.07413250865666621  0.8978864891690207  0.8956989802098378  1.0000
  C   C1        1.0  0.7313896110599403  0.33603219852738  0.966761999664164  1.0000
  C   C2        1.0  0.21343872645653233  0.6363155329109931  0.4081504379228431  1.0000
  C   C3        1.0  0.4572858130254619  0.838832874050663  0.05282158854612373  1.0000
  C   C4        1.0  0.515528448328837  0.5328127141669567  0.7347224379039572  1.0000
  C   C5        1.0  0.6057304447888705  0.11452426270303302  0.507321625284109  1.0000
  C   C6        1.0  0.08909911040629015  0.03178837476621199  0.12581862741422428  1.0000
  N   N1        1.0  0.4817325003167857  0.45502458630466863  0.3757492113420473  1.0000
  N   N2        1.0  0.1604755984363878  0.9759522669812213  0.6733699168265822  1.0000
  N   N3        1.0  0.647822612062339  0.47931784845229436  0.36671599383394216  1.0000
  N   N4        1.0  0.09719519123579135  0.057005846127926585  0.5997746939340146  1.0000
  O   O1        1.0  0.7597246758297935  0.20236558718931366  0.8506375164266806  1.0000
  O   O2        1.0  0.05037896213653414  0.5689551640816144  0.30083709676722403  1.0000
  O   O3        1.0  0.43307811473740343  0.759413134214109  0.1594032448064533  1.0000
  O   O4        1.0  0.681842857088286  0.6486266212467875  0.7235284207233471  1.0000
  O   O5        1.0  0.28676837672281236  0.6963241497116817  0.5490554753100791  1.0000
  O   O6        1.0  0.7103844365237394  0.4702756697086311  0.08314788869200096  1.0000
  O   O7        1.0  0.3335950803334307  0.45851881263902516  0.7541415168804102  1.0000
  O   O8        1.0  0.5122759695689074  0.9596795359073558  0.9808151855156662  1.0000
  O   O9        1.0  0.6266794549248793  0.13584716787618548  0.382083629613341  1.0000
  O   O10       1.0  0.9566113360831789  0.1061169269377431  0.15112789131152407  1.0000
data_image171
_chemical_formula_structural       Cu2C6N4O10
_chemical_formula_sum              "Cu2 C6 N4 O10"
_cell_length_a       6.950721000000001
_cell_length_b       7.113486077992492
_cell_length_c       8.6539786637408
_cell_angle_alpha    105.43300670560022
_cell_angle_beta     90.64948243757532
_cell_angle_gamma    112.19062950933201

_space_group_name_H-M_alt    "P 1"
_space_group_IT_number       1

loop_
  _space_group_symop_operation_xyz
  'x, y, z'

loop_
  _atom_site_type_symbol
  _atom_site_label
  _atom_site_symmetry_multiplicity
  _atom_site_fract_x
  _atom_site_fract_y
  _atom_site_fract_z
  _atom_site_occupancy
  Cu  Cu1       1.0  0.08619265635034745  0.8602057990100901  0.19488997701999636  1.0000
  Cu  Cu2       1.0  0.036091302160471406  0.8101789747662148  0.8899874009841425  1.0000
  C   C1        1.0  0.801752741948254  0.309813745239853  0.8662580833250834  1.0000
  C   C2        1.0  0.03049461103281438  0.6049337147533231  0.5207948165989857  1.0000
  C   C3        1.0  0.52997179198165  0.8440674530348096  0.07453780011904321  1.0000
  C   C4        1.0  0.6346125290221161  0.5747554407076123  0.6978670660893588  1.0000
  C   C5        1.0  0.7165878071786437  0.07608232150445059  0.39759881902992955  1.0000
  C   C6        1.0  0.0744222376714283  0.0393830519914502  0.09505700104442327  1.0000
  N   N1        1.0  0.4849930758042813  0.4725117326312932  0.354903816776414  1.0000
  N   N2        1.0  0.06152152677424072  0.053983660841225856  0.6137818267360576  1.0000
  N   N3        1.0  0.48865395073215734  0.6274103753959172  0.42665376706882396  1.0000
  N   N4        1.0  0.9673172988184828  0.9324961502006246  0.5021779038981751  1.0000
  O   O1        1.0  0.6861133744196237  0.15801891483313252  0.7547775922061091  1.0000
  O   O2        1.0  0.8690777372471028  0.5111222436274492  0.43094718492898076  1.0000
  O   O3        1.0  0.4565300172751602  0.6970456551132074  0.1359872409279067  1.0000
  O   O4        1.0  0.816726503271011  0.6533487861954907  0.7466818624295782  1.0000
  O   O5        1.0  0.16168560008474586  0.7602473655742699  0.6191621235891658  1.0000
  O   O6        1.0  0.8460988375335806  0.44041815056061095  0.0016693847652966554  1.0000
  O   O7        1.0  0.4664510819327821  0.4369417753244378  0.6764348902405626  1.0000
  O   O8        1.0  0.6121859451674743  0.9656247444315493  0.9961277038280669  1.0000
  O   O9        1.0  0.8283758782903584  0.22074566525157618  0.4972326916175369  1.0000
  O   O10       1.0  0.07422342695233386  0.20142254703675389  0.16187697835193834  1.0000
data_image172
_chemical_formula_structural       Cu2C6N4O10
_chemical_formula_sum              "Cu2 C6 N4 O10"
_cell_length_a       6.950721000000001
_cell_length_b       7.113486077992492
_cell_length_c       8.6539786637408
_cell_angle_alpha    105.43300670560022
_cell_angle_beta     90.64948243757532
_cell_angle_gamma    112.19062950933201

_space_group_name_H-M_alt    "P 1"
_space_group_IT_number       1

loop_
  _space_group_symop_operation_xyz
  'x, y, z'

loop_
  _atom_site_type_symbol
  _atom_site_label
  _atom_site_symmetry_multiplicity
  _atom_site_fract_x
  _atom_site_fract_y
  _atom_site_fract_z
  _atom_site_occupancy
  Cu  Cu1       1.0  0.08231975963596794  0.795447875595729  0.2123316026403559  1.0000
  Cu  Cu2       1.0  0.05171664201761805  0.8585109493467481  0.9671462906726493  1.0000
  C   C1        1.0  0.7675101886143109  0.29568558925669525  0.8173683654961755  1.0000
  C   C2        1.0  0.0395403512674286  0.5943362068528328  0.44281810701041646  1.0000
  C   C3        1.0  0.561393063333573  0.7880383812570719  0.02625434225390244  1.0000
  C   C4        1.0  0.5305445948597494  0.561107154287928  0.7324117972260263  1.0000
  C   C5        1.0  0.701775605802112  0.23497062000047592  0.3336201182128643  1.0000
  C   C6        1.0  0.1638965260859364  0.05094680092203663  0.15883476482604406  1.0000
  N   N1        1.0  0.5794484887845297  0.6171538062349046  0.3718643321240007  1.0000
  N   N2        1.0  0.9337621369195916  0.024843078403239627  0.6645637460539301  1.0000
  N   N3        1.0  0.4311879870591442  0.6168622805811266  0.3181718453238629  1.0000
  N   N4        1.0  0.09752389105863901  0.09453224068811705  0.6886886538165091  1.0000
  O   O1        1.0  0.6061996410897015  0.2275265730128767  0.7429786715771434  1.0000
  O   O2        1.0  0.04467046690694319  0.5721339526284481  0.2988768345874784  1.0000
  O   O3        1.0  0.41139150425648174  0.6359311539811223  0.05701895286896019  1.0000
  O   O4        1.0  0.7113885320189058  0.6493125788232921  0.7303652878908877  1.0000
  O   O5        1.0  0.0392217001610979  0.5957017467008336  0.5722256067269247  1.0000
  O   O6        1.0  0.9271366263803814  0.3197980646962981  0.8932660251870782  1.0000
  O   O7        1.0  0.3457842713136465  0.4613697679561193  0.7341618933337593  1.0000
  O   O8        1.0  0.680965331919642  0.9749025484089024  0.05141229335198183  1.0000
  O   O9        1.0  0.7854917122559321  0.13928756218989596  0.36466627736025975  1.0000
  O   O10       1.0  0.19474454674925834  0.24118794236291574  0.1798168025123393  1.0000
data_image173
_chemical_formula_structural       Cu2C6N4O10
_chemical_formula_sum              "Cu2 C6 N4 O10"
_cell_length_a       6.950721000000001
_cell_length_b       7.113486077992492
_cell_length_c       8.6539786637408
_cell_angle_alpha    105.43300670560022
_cell_angle_beta     90.64948243757532
_cell_angle_gamma    112.19062950933201

_space_group_name_H-M_alt    "P 1"
_space_group_IT_number       1

loop_
  _space_group_symop_operation_xyz
  'x, y, z'

loop_
  _atom_site_type_symbol
  _atom_site_label
  _atom_site_symmetry_multiplicity
  _atom_site_fract_x
  _atom_site_fract_y
  _atom_site_fract_z
  _atom_site_occupancy
  Cu  Cu1       1.0  0.09716441125735509  0.8070914746847758  0.22299638701429617  1.0000
  Cu  Cu2       1.0  0.013648054870775583  0.8641857775102344  0.9754643059420716  1.0000
  C   C1        1.0  0.7347793375241201  0.2922598162801261  0.8282574352037786  1.0000
  C   C2        1.0  0.059720172797486766  0.544303239014273  0.383609560852729  1.0000
  C   C3        1.0  0.5949838802374574  0.8713056866899436  0.03477837075615986  1.0000
  C   C4        1.0  0.4373577907974799  0.532268669185199  0.6445850097285414  1.0000
  C   C5        1.0  0.6238557513107391  0.09610532840543992  0.3052613266407612  1.0000
  C   C6        1.0  0.14904359228029818  0.07451741010079083  0.19535532193966657  1.0000
  N   N1        1.0  0.7035638730352183  0.6755501881982773  0.32335989570113766  1.0000
  N   N2        1.0  0.9788375316348594  0.9908094799189293  0.6692014222871928  1.0000
  N   N3        1.0  0.6621021398000158  0.6906238025513286  0.4485386439138679  1.0000
  N   N4        1.0  0.03198371253409882  0.004072623781960605  0.7932626546985686  1.0000
  O   O1        1.0  0.6121890802156694  0.1621826828761946  0.7087900279523565  1.0000
  O   O2        1.0  0.13140292396599318  0.5633548398138137  0.2566617745429527  1.0000
  O   O3        1.0  0.6399462598816872  0.7345824290642082  0.05078933012234488  1.0000
  O   O4        1.0  0.6083544293332077  0.5860614781721272  0.6947898508617532  1.0000
  O   O5        1.0  0.009014721454463562  0.6072552419731636  0.5191518226801302  1.0000
  O   O6        1.0  0.838389635807748  0.3990538327602141  0.9566991588371957  1.0000
  O   O7        1.0  0.25673807967602486  0.4484516989730043  0.6012719013561048  1.0000
  O   O8        1.0  0.5790893685278824  0.02089337675199232  0.0010107347389332055  1.0000
  O   O9        1.0  0.6990174124390784  0.05232372686099113  0.3998847063850546  1.0000
  O   O10       1.0  0.2998033493633281  0.25600723325232666  0.2824027931717525  1.0000
data_image174
_chemical_formula_structural       Cu2C6N4O10
_chemical_formula_sum              "Cu2 C6 N4 O10"
_cell_length_a       6.950721000000001
_cell_length_b       7.113486077992492
_cell_length_c       8.6539786637408
_cell_angle_alpha    105.43300670560022
_cell_angle_beta     90.64948243757532
_cell_angle_gamma    112.19062950933201

_space_group_name_H-M_alt    "P 1"
_space_group_IT_number       1

loop_
  _space_group_symop_operation_xyz
  'x, y, z'

loop_
  _atom_site_type_symbol
  _atom_site_label
  _atom_site_symmetry_multiplicity
  _atom_site_fract_x
  _atom_site_fract_y
  _atom_site_fract_z
  _atom_site_occupancy
  Cu  Cu1       1.0  0.09481020862636313  0.8355329814728207  0.21175715653481098  1.0000
  Cu  Cu2       1.0  0.9989713777261089  0.8472816064605033  0.9835972838457234  1.0000
  C   C1        1.0  0.7712955894476329  0.2685986630098215  0.8385516009313512  1.0000
  C   C2        1.0  0.14012145985864438  0.5844884757908069  0.3509266924521801  1.0000
  C   C3        1.0  0.5085254017645138  0.850600495743679  0.04618537808590917  1.0000
  C   C4        1.0  0.4364473932584647  0.4592659300720019  0.6463469261176218  1.0000
  C   C5        1.0  0.5487320210088009  0.17017984163041502  0.5025960243382371  1.0000
  C   C6        1.0  0.2028924904350662  0.11085252664496026  0.21462704094841212  1.0000
  N   N1        1.0  0.6809409518002192  0.7540510563240288  0.3202611717927004  1.0000
  N   N2        1.0  0.06124368056709284  0.9947584797992677  0.7565362764282716  1.0000
  N   N3        1.0  0.6420872610907955  0.5991743446347063  0.3560072810787993  1.0000
  N   N4        1.0  0.06911468498373718  0.8397536604632685  0.6897909497003596  1.0000
  O   O1        1.0  0.7109881337706891  0.12664357155992362  0.714435390613122  1.0000
  O   O2        1.0  0.19701931365477723  0.5712925437024852  0.22447287462168952  1.0000
  O   O3        1.0  0.46374605080641906  0.674795964926258  0.03324236515281087  1.0000
  O   O4        1.0  0.559001863913635  0.6159639053754766  0.7408976287865708  1.0000
  O   O5        1.0  0.00760079970282608  0.5604577854641359  0.4362554979559936  1.0000
  O   O6        1.0  0.845848197670821  0.3934498080262916  0.9757539508852563  1.0000
  O   O7        1.0  0.2891613289012612  0.34579049565455167  0.5473137250045208  1.0000
  O   O8        1.0  0.5776959971312059  0.039519794878490444  0.03221668211060513  1.0000
  O   O9        1.0  0.6697165204360053  0.3285294493777551  0.4988513709738042  1.0000
  O   O10       1.0  0.34538842530646474  0.2538470460003759  0.22648728377511645  1.0000
data_image175
_chemical_formula_structural       Cu2C6N4O10
_chemical_formula_sum              "Cu2 C6 N4 O10"
_cell_length_a       6.950721000000001
_cell_length_b       7.113486077992492
_cell_length_c       8.6539786637408
_cell_angle_alpha    105.43300670560022
_cell_angle_beta     90.64948243757532
_cell_angle_gamma    112.19062950933201

_space_group_name_H-M_alt    "P 1"
_space_group_IT_number       1

loop_
  _space_group_symop_operation_xyz
  'x, y, z'

loop_
  _atom_site_type_symbol
  _atom_site_label
  _atom_site_symmetry_multiplicity
  _atom_site_fract_x
  _atom_site_fract_y
  _atom_site_fract_z
  _atom_site_occupancy
  Cu  Cu1       1.0  0.021124969351187683  0.838179343650876  0.2723836843283088  1.0000
  Cu  Cu2       1.0  0.97557689951159  0.7566879111905661  0.9065664078241915  1.0000
  C   C1        1.0  0.8703144008204035  0.34711422312831863  0.9068624379007697  1.0000
  C   C2        1.0  0.09085058471884028  0.5243100467731183  0.27726053827455654  1.0000
  C   C3        1.0  0.5129679919612515  0.8309650833374751  0.010295767144603674  1.0000
  C   C4        1.0  0.35702370609250433  0.519877733832522  0.664520462153354  1.0000
  C   C5        1.0  0.5717831224065095  0.16794641735225477  0.4759484838497452  1.0000
  C   C6        1.0  0.24115258523802652  0.028314073863403788  0.19658174461939115  1.0000
  N   N1        1.0  0.7701850728868229  0.8616964986501087  0.4085910193598612  1.0000
  N   N2        1.0  0.1674140029817801  0.9245592121507211  0.7405080053971546  1.0000
  N   N3        1.0  0.5992551560248002  0.7493308200333347  0.38680301443923737  1.0000
  N   N4        1.0  0.2896942564189383  0.04409559353848058  0.6920099556849124  1.0000
  O   O1        1.0  0.918500118037229  0.2685827000465938  0.7873531499162217  1.0000
  O   O2        1.0  0.19758107711595232  0.4516997198535664  0.2117101384662332  1.0000
  O   O3        1.0  0.4871833416956042  0.6645272011149528  0.043700948726686395  1.0000
  O   O4        1.0  0.4123383823612286  0.6877818378476006  0.6488662363289699  1.0000
  O   O5        1.0  0.011954098404528095  0.6095871787988256  0.3618478522900572  1.0000
  O   O6        1.0  0.823637785131108  0.44039333169910394  0.020052024648808953  1.0000
  O   O7        1.0  0.27939351616211344  0.3390729514256243  0.6612684261535542  1.0000
  O   O8        1.0  0.4889236769550954  0.954661011634439  0.946611650464555  1.0000
  O   O9        1.0  0.7141532828535225  0.33494938600301283  0.5082694036113726  1.0000
  O   O10       1.0  0.36159963381528626  0.18306206564025373  0.2606474930987496  1.0000
data_image176
_chemical_formula_structural       Cu2C6N4O10
_chemical_formula_sum              "Cu2 C6 N4 O10"
_cell_length_a       6.950721000000001
_cell_length_b       7.113486077992492
_cell_length_c       8.6539786637408
_cell_angle_alpha    105.43300670560022
_cell_angle_beta     90.64948243757532
_cell_angle_gamma    112.19062950933201

_space_group_name_H-M_alt    "P 1"
_space_group_IT_number       1

loop_
  _space_group_symop_operation_xyz
  'x, y, z'

loop_
  _atom_site_type_symbol
  _atom_site_label
  _atom_site_symmetry_multiplicity
  _atom_site_fract_x
  _atom_site_fract_y
  _atom_site_fract_z
  _atom_site_occupancy
  Cu  Cu1       1.0  0.9603118688531433  0.8468988465548201  0.22728474481978592  1.0000
  Cu  Cu2       1.0  0.05076868467941509  0.7168361581866118  0.9493936810123978  1.0000
  C   C1        1.0  0.8589696304181508  0.3724063282923133  0.8638210565614014  1.0000
  C   C2        1.0  0.10167846205948876  0.5838306592785063  0.2724558898407552  1.0000
  C   C3        1.0  0.5201764217281647  0.8234783241235384  0.04509697631207776  1.0000
  C   C4        1.0  0.35736950858292976  0.5202069764648249  0.649485857692437  1.0000
  C   C5        1.0  0.7098413055476506  0.23788664852267677  0.3789450139640122  1.0000
  C   C6        1.0  0.21618047274322771  0.030008762874460082  0.20554461394186702  1.0000
  N   N1        1.0  0.7503964808505282  0.8535260829045997  0.3829431718511995  1.0000
  N   N2        1.0  0.16071432841476607  0.9139782811508628  0.842434948871653  1.0000
  N   N3        1.0  0.6737928066749241  0.8604865736967333  0.4930619975125081  1.0000
  N   N4        1.0  0.11461204015577042  0.9357859013952432  0.7305140889928392  1.0000
  O   O1        1.0  0.947283871201292  0.2584315765002203  0.7887256118383166  1.0000
  O   O2        1.0  0.20804632551322957  0.52825933188829  0.18752421574275857  1.0000
  O   O3        1.0  0.5456760416059128  0.6659080197865936  0.04913832392986772  1.0000
  O   O4        1.0  0.24940594575839137  0.5363785807797803  0.5519136331021841  1.0000
  O   O5        1.0  0.9555261638528035  0.5465014609445247  0.34531918400226913  1.0000
  O   O6        1.0  0.7286090115607995  0.4092097010838685  0.93777417340161  1.0000
  O   O7        1.0  0.46871151655322496  0.5358256690140486  0.7673690535826043  1.0000
  O   O8        1.0  0.509364030675773  0.9721779879387245  0.011887599889437661  1.0000
  O   O9        1.0  0.6816377859582492  0.32578599242438194  0.5073101357854899  1.0000
  O   O10       1.0  0.3675460682293057  0.17567395744616543  0.19962090116212433  1.0000
data_image177
_chemical_formula_structural       Cu2C6N4O10
_chemical_formula_sum              "Cu2 C6 N4 O10"
_cell_length_a       6.950721000000001
_cell_length_b       7.113486077992492
_cell_length_c       8.6539786637408
_cell_angle_alpha    105.43300670560022
_cell_angle_beta     90.64948243757532
_cell_angle_gamma    112.19062950933201

_space_group_name_H-M_alt    "P 1"
_space_group_IT_number       1

loop_
  _space_group_symop_operation_xyz
  'x, y, z'

loop_
  _atom_site_type_symbol
  _atom_site_label
  _atom_site_symmetry_multiplicity
  _atom_site_fract_x
  _atom_site_fract_y
  _atom_site_fract_z
  _atom_site_occupancy
  Cu  Cu1       1.0  0.01466997443018414  0.8881745069994155  0.21101523997863192  1.0000
  Cu  Cu2       1.0  0.05860463278720296  0.7196679469415961  0.9681278246828983  1.0000
  C   C1        1.0  0.9237104007541576  0.3121983318839638  0.8310858977227085  1.0000
  C   C2        1.0  0.06957212707700174  0.6316061303677907  0.2850380313603167  1.0000
  C   C3        1.0  0.5343606631561875  0.749574371401525  0.04227474115911034  1.0000
  C   C4        1.0  0.29861291207055357  0.4756178669353539  0.6163428528468279  1.0000
  C   C5        1.0  0.7791961878132629  0.21398005088181488  0.3984386530708295  1.0000
  C   C6        1.0  0.2209071132927558  0.11999426952720249  0.1885719551270582  1.0000
  N   N1        1.0  0.5704510451893559  0.7496283539417459  0.5402522921812918  1.0000
  N   N2        1.0  0.06264246896436532  0.8690958528418797  0.8228579550579724  1.0000
  N   N3        1.0  0.4696454901054885  0.8358115666392999  0.5297070241920436  1.0000
  N   N4        1.0  0.12393261245031961  0.9920939295681694  0.7572177870006701  1.0000
  O   O1        1.0  0.12004939177642258  0.4041041836082301  0.8410800227462066  1.0000
  O   O2        1.0  0.09319595477747786  0.48277613206830283  0.1813521799029163  1.0000
  O   O3        1.0  0.47942945822285343  0.65826159287277  0.14256362439952164  1.0000
  O   O4        1.0  0.20741540978545753  0.4394081589849552  0.4759319945247985  1.0000
  O   O5        1.0  0.07462676434093934  0.7535604560031743  0.4243400385382612  1.0000
  O   O6        1.0  0.7432565584065141  0.2145887417603158  0.7956521754226971  1.0000
  O   O7        1.0  0.41427026965498026  0.5356735009136753  0.7279503795471718  1.0000
  O   O8        1.0  0.6314406694067987  0.8690081053784002  0.9708970780839761  1.0000
  O   O9        1.0  0.6803971083847329  0.29544982540048687  0.4681894103269357  1.0000
  O   O10       1.0  0.33859329377866976  0.27446263908787394  0.1771968482782467  1.0000
data_image178
_chemical_formula_structural       Cu2C6N4O10
_chemical_formula_sum              "Cu2 C6 N4 O10"
_cell_length_a       6.950721000000001
_cell_length_b       7.113486077992492
_cell_length_c       8.6539786637408
_cell_angle_alpha    105.43300670560022
_cell_angle_beta     90.64948243757532
_cell_angle_gamma    112.19062950933201

_space_group_name_H-M_alt    "P 1"
_space_group_IT_number       1

loop_
  _space_group_symop_operation_xyz
  'x, y, z'

loop_
  _atom_site_type_symbol
  _atom_site_label
  _atom_site_symmetry_multiplicity
  _atom_site_fract_x
  _atom_site_fract_y
  _atom_site_fract_z
  _atom_site_occupancy
  Cu  Cu1       1.0  0.08996189137554733  0.9058287026957346  0.19662969707135133  1.0000
  Cu  Cu2       1.0  0.9574943176443349  0.6896013158675252  0.9124149713611934  1.0000
  C   C1        1.0  0.9480058969497038  0.40230127152205347  0.8832277300808378  1.0000
  C   C2        1.0  0.9597103429460023  0.5600269463364129  0.2951427093439478  1.0000
  C   C3        1.0  0.5332710517194099  0.7700644051256291  0.11038375869209494  1.0000
  C   C4        1.0  0.3432218451907047  0.35731493827049166  0.5971425058181152  1.0000
  C   C5        1.0  0.8496579530465264  0.2021371417250251  0.4302178820799056  1.0000
  C   C6        1.0  0.29034647732971863  0.15924748190307625  0.12961950174197379  1.0000
  N   N1        1.0  0.4466430157465584  0.9454703239543308  0.5538267249786817  1.0000
  N   N2        1.0  0.0823556129357983  0.9312456768474926  0.8118220217030662  1.0000
  N   N3        1.0  0.45300976433978657  0.8328917239638101  0.6217694251636061  1.0000
  N   N4        1.0  0.07278419848494289  0.9577145728896612  0.6885725523089347  1.0000
  O   O1        1.0  0.12231856223076853  0.46765975385796127  0.9596323472295492  1.0000
  O   O2        1.0  0.8817695074158841  0.39803801176171905  0.20186040072929567  1.0000
  O   O3        1.0  0.4713980591820566  0.7143337695162648  0.22707640331930157  1.0000
  O   O4        1.0  0.2850077419925284  0.3715290068458603  0.47398996270870336  1.0000
  O   O5        1.0  0.0735522445534256  0.7414279444451146  0.3624773017914824  1.0000
  O   O6        1.0  0.7920758163511622  0.2570471525952683  0.8144363595167211  1.0000
  O   O7        1.0  0.4450395621712429  0.37280165281443933  0.7139744916866748  1.0000
  O   O8        1.0  0.5870502558372319  0.8540989511155925  0.9987583604067529  1.0000
  O   O9        1.0  0.8450648351667183  0.34780309696339773  0.5000549699227503  1.0000
  O   O10       1.0  0.4597289363695476  0.29722122489996483  0.14486013281763915  1.0000
data_image179
_chemical_formula_structural       Cu2C6N4O10
_chemical_formula_sum              "Cu2 C6 N4 O10"
_cell_length_a       6.950721000000001
_cell_length_b       7.113486077992492
_cell_length_c       8.6539786637408
_cell_angle_alpha    105.43300670560022
_cell_angle_beta     90.64948243757532
_cell_angle_gamma    112.19062950933201

_space_group_name_H-M_alt    "P 1"
_space_group_IT_number       1

loop_
  _space_group_symop_operation_xyz
  'x, y, z'

loop_
  _atom_site_type_symbol
  _atom_site_label
  _atom_site_symmetry_multiplicity
  _atom_site_fract_x
  _atom_site_fract_y
  _atom_site_fract_z
  _atom_site_occupancy
  Cu  Cu1       1.0  0.04018855776677155  0.9347545458865798  0.2297481952226564  1.0000
  Cu  Cu2       1.0  0.9374592282564603  0.7055582734945676  0.8957450958542938  1.0000
  C   C1        1.0  0.002446309802528897  0.3822629394802044  0.9155500214400437  1.0000
  C   C2        1.0  0.9495961622807714  0.5799811508834867  0.2798256980389082  1.0000
  C   C3        1.0  0.5523812322071084  0.8429111265782878  0.07589364544865085  1.0000
  C   C4        1.0  0.4084091275343489  0.32521770336888167  0.566723150455585  1.0000
  C   C5        1.0  0.008698396231777483  0.23794302976608325  0.4863301221905884  1.0000
  C   C6        1.0  0.2571621594237108  0.0946449689408897  0.10774666971200204  1.0000
  N   N1        1.0  0.4479863574606048  0.8905210087506882  0.6326517332938575  1.0000
  N   N2        1.0  0.9624182685320184  0.8577067580420978  0.7494338508096621  1.0000
  N   N3        1.0  0.5489524609033372  0.8529588156819757  0.5407964912830823  1.0000
  N   N4        1.0  0.9399422922419822  0.9906291846787583  0.7049584832758466  1.0000
  O   O1        1.0  0.19182411952247622  0.4437988245644029  0.9601826055453327  1.0000
  O   O2        1.0  0.8809480839102523  0.41080366202710317  0.19971166552123965  1.0000
  O   O3        1.0  0.4781923235290556  0.7601785724143686  0.1795856174261805  1.0000
  O   O4        1.0  0.3492919363721339  0.36122690182013373  0.4493925163252334  1.0000
  O   O5        1.0  0.018016305730728304  0.7382432380734858  0.38276885326758703  1.0000
  O   O6        1.0  0.8197763571616034  0.2731666058541977  0.9128065323608061  1.0000
  O   O7        1.0  0.4569638656484043  0.26663599783686687  0.6757312556820076  1.0000
  O   O8        1.0  0.6153273812013258  0.8903902227975808  0.9565373433445501  1.0000
  O   O9        1.0  0.9401233072218014  0.3420935633899357  0.5336269090846244  1.0000
  O   O10       1.0  0.4275888257712377  0.20918130187785766  0.13285753701657846  1.0000
data_image180
_chemical_formula_structural       Cu2C6N4O10
_chemical_formula_sum              "Cu2 C6 N4 O10"
_cell_length_a       6.950721000000001
_cell_length_b       7.113486077992492
_cell_length_c       8.6539786637408
_cell_angle_alpha    105.43300670560022
_cell_angle_beta     90.64948243757532
_cell_angle_gamma    112.19062950933201

_space_group_name_H-M_alt    "P 1"
_space_group_IT_number       1

loop_
  _space_group_symop_operation_xyz
  'x, y, z'

loop_
  _atom_site_type_symbol
  _atom_site_label
  _atom_site_symmetry_multiplicity
  _atom_site_fract_x
  _atom_site_fract_y
  _atom_site_fract_z
  _atom_site_occupancy
  Cu  Cu1       1.0  0.9910800887475697  0.931016523770949  0.2346511588660236  1.0000
  Cu  Cu2       1.0  0.9014522598044186  0.6801828983178309  0.9256285799913327  1.0000
  C   C1        1.0  0.9939185731069881  0.4205740599176321  0.9158314919658098  1.0000
  C   C2        1.0  0.9586341779276624  0.6017736152427422  0.35813837457106557  1.0000
  C   C3        1.0  0.5330392426445733  0.7715586652423041  0.03377419088922129  1.0000
  C   C4        1.0  0.5537782126947353  0.5077467721468922  0.5187814978161229  1.0000
  C   C5        1.0  0.8972700715360464  0.08030789847573282  0.422463167803615  1.0000
  C   C6        1.0  0.22682133057243226  0.05321402025994293  0.1481084755184005  1.0000
  N   N1        1.0  0.4394776045520069  0.87828996457046  0.6009064183050281  1.0000
  N   N2        1.0  0.9602009164805678  0.8756408847088764  0.8095160111636347  1.0000
  N   N3        1.0  0.5943380759293628  0.9398108973511669  0.54375310004576  1.0000
  N   N4        1.0  0.08837538644448317  0.940275655814961  0.7425025788039746  1.0000
  O   O1        1.0  0.13441026977864112  0.4357684822639953  0.831363483117236  1.0000
  O   O2        1.0  0.9559192685560971  0.4330219768645913  0.3182841087673609  1.0000
  O   O3        1.0  0.45652070485841834  0.7234013522022975  0.1373386593043372  1.0000
  O   O4        1.0  0.52650391513867  0.5330516542810435  0.3962853806621394  1.0000
  O   O5        1.0  0.9567326480979653  0.7641636672720293  0.40609526716322963  1.0000
  O   O6        1.0  0.8796340704891601  0.35602645157903007  0.006781449773998416  1.0000
  O   O7        1.0  0.5907538699821572  0.45094362033015467  0.6198329523215897  1.0000
  O   O8        1.0  0.5891763823493343  0.8119732750303488  0.9027073232675469  1.0000
  O   O9        1.0  0.012310997492087195  0.16479969384245546  0.5428008839653253  1.0000
  O   O10       1.0  0.26554812294970587  0.12518376543442367  0.04532837445917758  1.0000
data_image181
_chemical_formula_structural       Cu2C6N4O10
_chemical_formula_sum              "Cu2 C6 N4 O10"
_cell_length_a       6.950721000000001
_cell_length_b       7.113486077992492
_cell_length_c       8.6539786637408
_cell_angle_alpha    105.43300670560022
_cell_angle_beta     90.64948243757532
_cell_angle_gamma    112.19062950933201

_space_group_name_H-M_alt    "P 1"
_space_group_IT_number       1

loop_
  _space_group_symop_operation_xyz
  'x, y, z'

loop_
  _atom_site_type_symbol
  _atom_site_label
  _atom_site_symmetry_multiplicity
  _atom_site_fract_x
  _atom_site_fract_y
  _atom_site_fract_z
  _atom_site_occupancy
  Cu  Cu1       1.0  0.9288382137476432  0.8729525053121335  0.21963023131390547  1.0000
  Cu  Cu2       1.0  0.838662176102209  0.7029013675006799  0.933106196513114  1.0000
  C   C1        1.0  0.032267396832672386  0.3827321394567537  0.9137920998710495  1.0000
  C   C2        1.0  0.03680228423198607  0.5530017897694781  0.4164937964449109  1.0000
  C   C3        1.0  0.4897986058873287  0.7921532156030797  0.018704578759666246  1.0000
  C   C4        1.0  0.5586749606750862  0.5080793150064913  0.4898253688312175  1.0000
  C   C5        1.0  0.025381085989487406  0.11589043589821214  0.45761910342550793  1.0000
  C   C6        1.0  0.17403943110578068  0.035058719356873214  0.1525839468762333  1.0000
  N   N1        1.0  0.4934437549797537  0.04190111329653634  0.4379884701926995  1.0000
  N   N2        1.0  0.07841315277460115  0.8086951952752168  0.8251232449452911  1.0000
  N   N3        1.0  0.49579655381041143  0.045616417441988855  0.5624950648423763  1.0000
  N   N4        1.0  0.10138975995546173  0.9116357748687312  0.7445733953170088  1.0000
  O   O1        1.0  0.19910797201972438  0.4616748525741943  0.8732081876242144  1.0000
  O   O2        1.0  0.9897716248490056  0.3586117593935594  0.3441879319992054  1.0000
  O   O3        1.0  0.4412746282283191  0.8108556615781399  0.1545028819373957  1.0000
  O   O4        1.0  0.541822889891308  0.5864080984700946  0.40072837410873136  1.0000
  O   O5        1.0  0.12290646003925806  0.7403085767429576  0.4124750877370609  1.0000
  O   O6        1.0  0.8539143044265523  0.305265162617647  0.9272980643274952  1.0000
  O   O7        1.0  0.6385252234405341  0.4546606383893379  0.5788617342032001  1.0000
  O   O8        1.0  0.5585029198363716  0.7876505884684963  0.8979754675684695  1.0000
  O   O9        1.0  0.9749953467187668  0.2121338164180069  0.570022092522863  1.0000
  O   O10       1.0  0.35013817671451464  0.10083078452380212  0.1499012028472304  1.0000
data_image182
_chemical_formula_structural       Cu2C6N4O10
_chemical_formula_sum              "Cu2 C6 N4 O10"
_cell_length_a       6.950721000000001
_cell_length_b       7.113486077992492
_cell_length_c       8.6539786637408
_cell_angle_alpha    105.43300670560022
_cell_angle_beta     90.64948243757532
_cell_angle_gamma    112.19062950933201

_space_group_name_H-M_alt    "P 1"
_space_group_IT_number       1

loop_
  _space_group_symop_operation_xyz
  'x, y, z'

loop_
  _atom_site_type_symbol
  _atom_site_label
  _atom_site_symmetry_multiplicity
  _atom_site_fract_x
  _atom_site_fract_y
  _atom_site_fract_z
  _atom_site_occupancy
  Cu  Cu1       1.0  0.9176335419715624  0.8603939098347982  0.24606502906924888  1.0000
  Cu  Cu2       1.0  0.793070587279887  0.7515631586847588  0.8924206066203615  1.0000
  C   C1        1.0  0.15812715818447534  0.36087292711212077  0.940555466006878  1.0000
  C   C2        1.0  0.03974548389498959  0.47319172650970187  0.4053003633226173  1.0000
  C   C3        1.0  0.4666669472790147  0.7714570576192488  0.018316012590025688  1.0000
  C   C4        1.0  0.6205579809075872  0.5920464693866558  0.4403680302600197  1.0000
  C   C5        1.0  0.9425104894609128  0.042073548624050425  0.46757005637908033  1.0000
  C   C6        1.0  0.21087627541143128  0.0565138280602806  0.20791174810717394  1.0000
  N   N1        1.0  0.44440313518125574  0.045971703381733064  0.4817278031243002  1.0000
  N   N2        1.0  0.04821522956026503  0.8711445155541928  0.827524251971367  1.0000
  N   N3        1.0  0.5220503889532209  0.22664414970422753  0.5289557248317365  1.0000
  N   N4        1.0  0.19588162620281635  0.8703939029366126  0.7825255601641654  1.0000
  O   O1        1.0  0.29360208375394925  0.34959284875087016  0.8797846116353749  1.0000
  O   O2        1.0  0.918723807638629  0.3591685166192429  0.27383247580373604  1.0000
  O   O3        1.0  0.49326250902819024  0.7426203902504191  0.15047980487941226  1.0000
  O   O4        1.0  0.44242927492672757  0.4689989908406349  0.36162879452468755  1.0000
  O   O5        1.0  0.13343608400459034  0.5408886246157107  0.5305000987362056  1.0000
  O   O6        1.0  0.9838386102573817  0.33564879513056883  0.9661427802818379  1.0000
  O   O7        1.0  0.7459820195506707  0.6655346678480041  0.5633661005731099  1.0000
  O   O8        1.0  0.4907151609659487  0.777498467196752  0.8925831994588505  1.0000
  O   O9        1.0  0.9615139159895828  0.18858661598908846  0.5656337221790486  1.0000
  O   O10       1.0  0.3074832039607245  0.13548498240619233  0.11897875406408351  1.0000
data_image183
_chemical_formula_structural       Cu2C6N4O10
_chemical_formula_sum              "Cu2 C6 N4 O10"
_cell_length_a       6.950721000000001
_cell_length_b       7.113486077992492
_cell_length_c       8.6539786637408
_cell_angle_alpha    105.43300670560022
_cell_angle_beta     90.64948243757532
_cell_angle_gamma    112.19062950933201

_space_group_name_H-M_alt    "P 1"
_space_group_IT_number       1

loop_
  _space_group_symop_operation_xyz
  'x, y, z'

loop_
  _atom_site_type_symbol
  _atom_site_label
  _atom_site_symmetry_multiplicity
  _atom_site_fract_x
  _atom_site_fract_y
  _atom_site_fract_z
  _atom_site_occupancy
  Cu  Cu1       1.0  0.9132373544322077  0.897444234650498  0.2989962246841305  1.0000
  Cu  Cu2       1.0  0.8328212067431281  0.8324516194230791  0.8610559890628556  1.0000
  C   C1        1.0  0.16513182779237898  0.3311738502699168  0.8798764997042049  1.0000
  C   C2        1.0  0.16458800182326716  0.5402690021503349  0.39879565854008625  1.0000
  C   C3        1.0  0.5174055826248063  0.7805932445013717  0.09533833094204414  1.0000
  C   C4        1.0  0.5895839668347324  0.542787985701052  0.42434083906578907  1.0000
  C   C5        1.0  0.9268897189455385  0.06767688787019477  0.507080892842396  1.0000
  C   C6        1.0  0.9734847155219654  0.8557098861619761  0.08808837774901102  1.0000
  N   N1        1.0  0.30102216424815265  0.012959137532910114  0.6042428765020811  1.0000
  N   N2        1.0  0.012660065996174641  0.7346326342223388  0.6831274973799837  1.0000
  N   N3        1.0  0.34697953183449304  0.15595570208303222  0.5563738310853426  1.0000
  N   N4        1.0  0.1677853200734747  0.7420793952643316  0.7383356916996522  1.0000
  O   O1        1.0  0.34545478228106175  0.3793326206273529  0.8679421805738933  1.0000
  O   O2        1.0  0.10149554521712875  0.5073828263760503  0.26246917506196965  1.0000
  O   O3        1.0  0.5680725620311755  0.8178492982673928  0.25339589124037254  1.0000
  O   O4        1.0  0.5323633952558999  0.3900036571639518  0.3114201065686159  1.0000
  O   O5        1.0  0.21184070922631953  0.5511826974559566  0.5331011897421831  1.0000
  O   O6        1.0  0.01418551145389253  0.27308076577690094  0.9416882490417426  1.0000
  O   O7        1.0  0.6990203224778069  0.7398318985459083  0.48359824167125853  1.0000
  O   O8        1.0  0.537159635562515  0.809559957928331  0.964694882879952  1.0000
  O   O9        1.0  0.8718521960843613  0.1693112466260778  0.6131436849091715  1.0000
  O   O10       1.0  0.15755139531519746  0.9204869641117412  0.08562479336239456  1.0000
data_image184
_chemical_formula_structural       Cu2C6N4O10
_chemical_formula_sum              "Cu2 C6 N4 O10"
_cell_length_a       6.950721000000001
_cell_length_b       7.113486077992492
_cell_length_c       8.6539786637408
_cell_angle_alpha    105.43300670560022
_cell_angle_beta     90.64948243757532
_cell_angle_gamma    112.19062950933201

_space_group_name_H-M_alt    "P 1"
_space_group_IT_number       1

loop_
  _space_group_symop_operation_xyz
  'x, y, z'

loop_
  _atom_site_type_symbol
  _atom_site_label
  _atom_site_symmetry_multiplicity
  _atom_site_fract_x
  _atom_site_fract_y
  _atom_site_fract_z
  _atom_site_occupancy
  Cu  Cu1       1.0  0.8635592998447073  0.9054081197739157  0.3110945182936902  1.0000
  Cu  Cu2       1.0  0.790153787601861  0.7696758213851153  0.8913768599328381  1.0000
  C   C1        1.0  0.14881423668961072  0.3794405292648485  0.9617905563535832  1.0000
  C   C2        1.0  0.15229159670643824  0.455719610147419  0.31725322355804964  1.0000
  C   C3        1.0  0.5766607622049098  0.9069797989235995  0.05628308211307864  1.0000
  C   C4        1.0  0.6615418065729423  0.540602716626063  0.513805563340349  1.0000
  C   C5        1.0  0.8908941810972175  0.17976013619955594  0.46270739531150085  1.0000
  C   C6        1.0  0.0878933559165751  0.850109896863823  0.9724959447486895  1.0000
  N   N1        1.0  0.4461468944108692  0.08508258892675147  0.541026521037963  1.0000
  N   N2        1.0  0.12814769513188218  0.7760703644105915  0.6166478649142767  1.0000
  N   N3        1.0  0.3185825550762533  0.0784880468704856  0.6150426227539207  1.0000
  N   N4        1.0  0.08360689161059509  0.6301655886030102  0.6620871815040237  1.0000
  O   O1        1.0  0.3399237597538257  0.46295497592759693  0.983021832330897  1.0000
  O   O2        1.0  0.14247990177642797  0.5945228101738653  0.261043634518928  1.0000
  O   O3        1.0  0.5743509424401767  0.9540751998083299  0.20129611585597984  1.0000
  O   O4        1.0  0.659791167527463  0.3853952988729399  0.4159803005646933  1.0000
  O   O5        1.0  0.14734555374208758  0.276782718120252  0.3067368295938664  1.0000
  O   O6        1.0  0.9676591840514288  0.283592165317172  0.9515898277069396  1.0000
  O   O7        1.0  0.6214649892306242  0.6539425682316016  0.633835685190236  1.0000
  O   O8        1.0  0.5622265764181131  0.872107600148591  0.920751227102484  1.0000
  O   O9        1.0  0.9051452591495082  0.26085098191814654  0.6012621072859998  1.0000
  O   O10       1.0  0.220024025901715  0.9490978287086306  0.08284456236018907  1.0000
data_image185
_chemical_formula_structural       Cu2C6N4O10
_chemical_formula_sum              "Cu2 C6 N4 O10"
_cell_length_a       6.950721000000001
_cell_length_b       7.113486077992492
_cell_length_c       8.6539786637408
_cell_angle_alpha    105.43300670560022
_cell_angle_beta     90.64948243757532
_cell_angle_gamma    112.19062950933201

_space_group_name_H-M_alt    "P 1"
_space_group_IT_number       1

loop_
  _space_group_symop_operation_xyz
  'x, y, z'

loop_
  _atom_site_type_symbol
  _atom_site_label
  _atom_site_symmetry_multiplicity
  _atom_site_fract_x
  _atom_site_fract_y
  _atom_site_fract_z
  _atom_site_occupancy
  Cu  Cu1       1.0  0.8300918262675256  0.917255561427462  0.2506478597801643  1.0000
  Cu  Cu2       1.0  0.7778458459198293  0.7465817422639432  0.007819927334987042  1.0000
  C   C1        1.0  0.1739135841936118  0.34110802642588356  0.9179972213690254  1.0000
  C   C2        1.0  0.1359673065109077  0.37338624263463127  0.25723567601737596  1.0000
  C   C3        1.0  0.6627885724970987  0.041111613644079226  0.01143595714676271  1.0000
  C   C4        1.0  0.6101735900447586  0.6058125177133511  0.5335549153224325  1.0000
  C   C5        1.0  0.9365155317493704  0.9449940330878851  0.4539880494569819  1.0000
  C   C6        1.0  0.03129836113580975  0.8200025001447279  0.01142245028954903  1.0000
  N   N1        1.0  0.3430522731147235  0.1746951067326279  0.6487675773628885  1.0000
  N   N2        1.0  0.15402867186762847  0.6355096593988663  0.6822959700593592  1.0000
  N   N3        1.0  0.30474287219957585  0.30878889335112425  0.6587197213457112  1.0000
  N   N4        1.0  0.2700573016137884  0.769542278795226  0.6499495963270667  1.0000
  O   O1        1.0  0.3450471340171918  0.4679147076626053  0.964089457982294  1.0000
  O   O2        1.0  0.054525929620300236  0.5052808759214944  0.2859185475439545  1.0000
  O   O3        1.0  0.6380400433698181  0.008141316723646597  0.14220348325251475  1.0000
  O   O4        1.0  0.5472147348923805  0.5659998925183565  0.401997343746795  1.0000
  O   O5        1.0  0.17059348129460292  0.2183116917924095  0.25139886849729765  1.0000
  O   O6        1.0  0.02673520515760604  0.20329569564471975  0.86530613959553  1.0000
  O   O7        1.0  0.6873577296953043  0.6494041835614353  0.6602789456615852  1.0000
  O   O8        1.0  0.6411362951048447  0.03290463731277149  0.8755355382108396  1.0000
  O   O9        1.0  0.8960559291335563  0.05760538241190141  0.5611209361036049  1.0000
  O   O10       1.0  0.21052392427202182  0.8969070626017877  0.02503753686212564  1.0000
data_image186
_chemical_formula_structural       Cu2C6N4O10
_chemical_formula_sum              "Cu2 C6 N4 O10"
_cell_length_a       6.950721000000001
_cell_length_b       7.113486077992492
_cell_length_c       8.6539786637408
_cell_angle_alpha    105.43300670560022
_cell_angle_beta     90.64948243757532
_cell_angle_gamma    112.19062950933201

_space_group_name_H-M_alt    "P 1"
_space_group_IT_number       1

loop_
  _space_group_symop_operation_xyz
  'x, y, z'

loop_
  _atom_site_type_symbol
  _atom_site_label
  _atom_site_symmetry_multiplicity
  _atom_site_fract_x
  _atom_site_fract_y
  _atom_site_fract_z
  _atom_site_occupancy
  Cu  Cu1       1.0  0.7992790976014941  0.9455964089298637  0.20981626349804708  1.0000
  Cu  Cu2       1.0  0.7630103077323945  0.6307992492555199  0.9852622113141123  1.0000
  C   C1        1.0  0.24835927766715316  0.32717817808052513  0.015178681099957014  1.0000
  C   C2        1.0  0.10415289721482786  0.45936945085533076  0.30113757870141633  1.0000
  C   C3        1.0  0.6678466356619714  0.12906662314010697  0.9846790444459397  1.0000
  C   C4        1.0  0.611403768796956  0.6153383074685013  0.528734655025198  1.0000
  C   C5        1.0  0.7968703310744301  0.9447368050821318  0.46267190305727723  1.0000
  C   C6        1.0  0.09771963294373887  0.8501240812892215  0.0527352468873977  1.0000
  N   N1        1.0  0.35173890196538093  0.2576512958676924  0.6597040422730893  1.0000
  N   N2        1.0  0.14302075629033828  0.6323297690978522  0.6973544953607773  1.0000
  N   N3        1.0  0.4196046434567279  0.22005623232235272  0.5364444842868041  1.0000
  N   N4        1.0  0.23847121133927784  0.7719227944018934  0.6528865931868104  1.0000
  O   O1        1.0  0.3520218070900857  0.49852781529462586  0.022686166491695747  1.0000
  O   O2        1.0  0.001382823654505417  0.5327946496249125  0.24788224490923483  1.0000
  O   O3        1.0  0.7756073003452715  0.12551809862620233  0.08939966967553103  1.0000
  O   O4        1.0  0.5150015796831565  0.6582910859368947  0.4389022469029865  1.0000
  O   O5        1.0  0.16978945990689281  0.3625525636918234  0.3488825251207712  1.0000
  O   O6        1.0  0.11547021196774378  0.15455714249535932  0.992307209566206  1.0000
  O   O7        1.0  0.7053268873462221  0.6000632477027297  0.628919859817439  1.0000
  O   O8        1.0  0.5989077154926941  0.09984224261773145  0.8537848349783626  1.0000
  O   O9        1.0  0.908581937689407  0.014005298656355428  0.5790749592133513  1.0000
  O   O10       1.0  0.20164443593804648  0.7645110820148943  0.04978872706950286  1.0000
data_image187
_chemical_formula_structural       Cu2C6N4O10
_chemical_formula_sum              "Cu2 C6 N4 O10"
_cell_length_a       6.950721000000001
_cell_length_b       7.113486077992492
_cell_length_c       8.6539786637408
_cell_angle_alpha    105.43300670560022
_cell_angle_beta     90.64948243757532
_cell_angle_gamma    112.19062950933201

_space_group_name_H-M_alt    "P 1"
_space_group_IT_number       1

loop_
  _space_group_symop_operation_xyz
  'x, y, z'

loop_
  _atom_site_type_symbol
  _atom_site_label
  _atom_site_symmetry_multiplicity
  _atom_site_fract_x
  _atom_site_fract_y
  _atom_site_fract_z
  _atom_site_occupancy
  Cu  Cu1       1.0  0.7940550851615154  0.9707441934294545  0.17705440428594166  1.0000
  Cu  Cu2       1.0  0.7127206306889639  0.6288755693360418  0.9898260432088252  1.0000
  C   C1        1.0  0.4145308017195754  0.41966097488486387  0.024877014879900905  1.0000
  C   C2        1.0  0.04007164423446464  0.5177009558782859  0.3686758601921316  1.0000
  C   C3        1.0  0.7215469681080486  0.12488117985659741  0.9292184515829534  1.0000
  C   C4        1.0  0.6607011840791752  0.5534444586770693  0.5454268864595181  1.0000
  C   C5        1.0  0.8073517525921973  0.9569822570802354  0.3947713520100563  1.0000
  C   C6        1.0  0.9948095707418848  0.8374902305703249  0.10424001448748525  1.0000
  N   N1        1.0  0.3020637164298413  0.15691754031201488  0.6107578271292586  1.0000
  N   N2        1.0  0.11013862209318759  0.5986451014640759  0.7430161207062057  1.0000
  N   N3        1.0  0.28970147436420346  0.029426817935334748  0.4990106282742728  1.0000
  N   N4        1.0  0.2759166838562551  0.6974695919565708  0.7318729640944345  1.0000
  O   O1        1.0  0.41999246183199984  0.5359203393202785  0.9348237680523097  1.0000
  O   O2        1.0  0.964235777185743  0.6349000940125362  0.3628972630623455  1.0000
  O   O3        1.0  0.8806529538636901  0.26976495465877837  0.9826176507628168  1.0000
  O   O4        1.0  0.5494767796377145  0.5008806223666105  0.42494718530705433  1.0000
  O   O5        1.0  0.09850776863332783  0.388957904819037  0.3484838371994514  1.0000
  O   O6        1.0  0.37831177442763625  0.2693343534715989  0.07605950212358925  1.0000
  O   O7        1.0  0.7712729981022619  0.5988011954048087  0.6574260369179972  1.0000
  O   O8        1.0  0.5535633789300353  0.9917278474277573  0.8796891819659636  1.0000
  O   O9        1.0  0.8249819606871293  0.943440241950297  0.5243984153090036  1.0000
  O   O10       1.0  0.18517875619097368  0.8697839777086366  0.1206104335875021  1.0000
data_image188
_chemical_formula_structural       Cu2C6N4O10
_chemical_formula_sum              "Cu2 C6 N4 O10"
_cell_length_a       6.950721000000001
_cell_length_b       7.113486077992492
_cell_length_c       8.6539786637408
_cell_angle_alpha    105.43300670560022
_cell_angle_beta     90.64948243757532
_cell_angle_gamma    112.19062950933201

_space_group_name_H-M_alt    "P 1"
_space_group_IT_number       1

loop_
  _space_group_symop_operation_xyz
  'x, y, z'

loop_
  _atom_site_type_symbol
  _atom_site_label
  _atom_site_symmetry_multiplicity
  _atom_site_fract_x
  _atom_site_fract_y
  _atom_site_fract_z
  _atom_site_occupancy
  Cu  Cu1       1.0  0.8167679383576072  0.9726918327596258  0.16719596731858946  1.0000
  Cu  Cu2       1.0  0.6921148451353146  0.6068483157670663  0.9264348496624939  1.0000
  C   C1        1.0  0.36889781774058894  0.2990282965622233  0.984785903159314  1.0000
  C   C2        1.0  0.1122947408557476  0.608486381345293  0.41659163346266936  1.0000
  C   C3        1.0  0.7606415862577638  0.13821618830004345  0.9837563714840238  1.0000
  C   C4        1.0  0.6354565664936056  0.49780870852963477  0.5718704118162314  1.0000
  C   C5        1.0  0.7668166482361759  0.13127528491947607  0.38354886670721955  1.0000
  C   C6        1.0  0.9692320488424271  0.7491040509698342  0.12502803861472905  1.0000
  N   N1        1.0  0.36797515200071507  0.137131080185114  0.633290760333294  1.0000
  N   N2        1.0  0.12822650106889166  0.5037325214106008  0.7480108804649684  1.0000
  N   N3        1.0  0.30918165907032136  0.18214840637292729  0.538594387292948  1.0000
  N   N4        1.0  0.18912177399498642  0.6716864119644324  0.7465325542332231  1.0000
  O   O1        1.0  0.4121760775953776  0.40492684502018467  0.9082334009005236  1.0000
  O   O2        1.0  0.026188558322313513  0.7103499279335246  0.3878432384049513  1.0000
  O   O3        1.0  0.8962446588035976  0.3173228842652127  0.02607348437091528  1.0000
  O   O4        1.0  0.6162874421269209  0.38465962414607846  0.4444399551934107  1.0000
  O   O5        1.0  0.23056108560881794  0.5355400099926939  0.40858196990291473  1.0000
  O   O6        1.0  0.2925926101547829  0.20736406735842927  0.08896750501053563  1.0000
  O   O7        1.0  0.6670858889584904  0.6362330706376631  0.6848165638171821  1.0000
  O   O8        1.0  0.6221545682608504  0.9824615098409932  0.9141352703859833  1.0000
  O   O9        1.0  0.7383628061454419  0.1261721588570227  0.5199079379479944  1.0000
  O   O10       1.0  0.1198590734894096  0.7608247190913127  0.07557650195932238  1.0000
data_image189
_chemical_formula_structural       Cu2C6N4O10
_chemical_formula_sum              "Cu2 C6 N4 O10"
_cell_length_a       6.950721000000001
_cell_length_b       7.113486077992492
_cell_length_c       8.6539786637408
_cell_angle_alpha    105.43300670560022
_cell_angle_beta     90.64948243757532
_cell_angle_gamma    112.19062950933201

_space_group_name_H-M_alt    "P 1"
_space_group_IT_number       1

loop_
  _space_group_symop_operation_xyz
  'x, y, z'

loop_
  _atom_site_type_symbol
  _atom_site_label
  _atom_site_symmetry_multiplicity
  _atom_site_fract_x
  _atom_site_fract_y
  _atom_site_fract_z
  _atom_site_occupancy
  Cu  Cu1       1.0  0.8284915795039096  0.9162316162349136  0.23411057532469576  1.0000
  Cu  Cu2       1.0  0.6863803902530938  0.5997343962294862  0.930275954910952  1.0000
  C   C1        1.0  0.3071145905738163  0.2677591232802262  0.053884398565285485  1.0000
  C   C2        1.0  0.11894329661971624  0.6566788887411983  0.3881151729146668  1.0000
  C   C3        1.0  0.7422111260691432  0.1655264952503721  0.9465512773912301  1.0000
  C   C4        1.0  0.6024366070980826  0.5539723709898241  0.43815719936430236  1.0000
  C   C5        1.0  0.9113190564858171  0.16578648713076014  0.3827033185472479  1.0000
  C   C6        1.0  0.9435641507337725  0.7090807344712456  0.06493770202008435  1.0000
  N   N1        1.0  0.31335437960637913  0.05963787165693635  0.6313729491030966  1.0000
  N   N2        1.0  0.3080878205345676  0.7363467586752885  0.7615939642162902  1.0000
  N   N3        1.0  0.27653392858346404  0.18849533425537723  0.6059347597625988  1.0000
  N   N4        1.0  0.16040194774686078  0.5916055417191364  0.7505648451036517  1.0000
  O   O1        1.0  0.4239630797145945  0.46343684684193065  0.0638996825166791  1.0000
  O   O2        1.0  0.9793955813540576  0.6916224974901712  0.4288923059978902  1.0000
  O   O3        1.0  0.8863264913461918  0.2028383896898922  0.03049234743434992  1.0000
  O   O4        1.0  0.6298424662033753  0.4765821942397577  0.3000082910530952  1.0000
  O   O5        1.0  0.2588880708538103  0.597502804409676  0.3876246221254258  1.0000
  O   O6        1.0  0.21203216683984547  0.09443765565008584  0.9991237683036739  1.0000
  O   O7        1.0  0.6007822946948062  0.6012092641598483  0.5739623994933161  1.0000
  O   O8        1.0  0.5905335621377095  0.12476849544747215  0.857818789452168  1.0000
  O   O9        1.0  0.8364707067215125  0.14768365362364605  0.4994291250534463  1.0000
  O   O10       1.0  0.11464260729472975  0.7746513794312548  0.10768229763486221  1.0000
data_image190
_chemical_formula_structural       Cu2C6N4O10
_chemical_formula_sum              "Cu2 C6 N4 O10"
_cell_length_a       6.950721000000001
_cell_length_b       7.113486077992492
_cell_length_c       8.6539786637408
_cell_angle_alpha    105.43300670560022
_cell_angle_beta     90.64948243757532
_cell_angle_gamma    112.19062950933201

_space_group_name_H-M_alt    "P 1"
_space_group_IT_number       1

loop_
  _space_group_symop_operation_xyz
  'x, y, z'

loop_
  _atom_site_type_symbol
  _atom_site_label
  _atom_site_symmetry_multiplicity
  _atom_site_fract_x
  _atom_site_fract_y
  _atom_site_fract_z
  _atom_site_occupancy
  Cu  Cu1       1.0  0.8374544241466875  0.8990894682174111  0.20807300853184088  1.0000
  Cu  Cu2       1.0  0.7439269371108065  0.6381379226560469  0.9422261893097513  1.0000
  C   C1        1.0  0.27353480275232595  0.2715225348457398  0.9842375796141692  1.0000
  C   C2        1.0  0.11720609430727684  0.7120234225946072  0.4700659831320311  1.0000
  C   C3        1.0  0.6910747825149215  0.1372162106933561  0.9562893829791801  1.0000
  C   C4        1.0  0.542887208069028  0.5289461226449017  0.39793333079913157  1.0000
  C   C5        1.0  0.7935466053119421  0.9873867686375712  0.42749446519343726  1.0000
  C   C6        1.0  0.9679112405636301  0.6619142983328871  0.056506058378140676  1.0000
  N   N1        1.0  0.26908941137283693  0.18660684910216085  0.6148834263337328  1.0000
  N   N2        1.0  0.2966728991527544  0.7160627974743223  0.8192661104657888  1.0000
  N   N3        1.0  0.43702430187636954  0.23389995430161292  0.5868990071055737  1.0000
  N   N4        1.0  0.2719852222011657  0.5827124337492962  0.7086187713121823  1.0000
  O   O1        1.0  0.34055790187952517  0.44825646634798927  0.9644815705058916  1.0000
  O   O2        1.0  0.013585369431719223  0.681163967823396  0.5695826598501705  1.0000
  O   O3        1.0  0.8119277656880693  0.12453798745264266  0.05148328937697133  1.0000
  O   O4        1.0  0.5347425380871212  0.3861952095942889  0.28382905595149666  1.0000
  O   O5        1.0  0.2451032425785172  0.766030593882369  0.3879954684618474  1.0000
  O   O6        1.0  0.18103341708741724  0.1303352604486003  0.03975489872940874  1.0000
  O   O7        1.0  0.5751860425900593  0.685408749128698  0.5072943145000424  1.0000
  O   O8        1.0  0.5834995618134938  0.18046704173858874  0.8846471718292981  1.0000
  O   O9        1.0  0.8924036435202525  0.13409269218731718  0.5391562331883065  1.0000
  O   O10       1.0  0.08018406234549746  0.5922761470225114  0.07949267722017922  1.0000
data_image191
_chemical_formula_structural       Cu2C6N4O10
_chemical_formula_sum              "Cu2 C6 N4 O10"
_cell_length_a       6.950721000000001
_cell_length_b       7.113486077992492
_cell_length_c       8.6539786637408
_cell_angle_alpha    105.43300670560022
_cell_angle_beta     90.64948243757532
_cell_angle_gamma    112.19062950933201

_space_group_name_H-M_alt    "P 1"
_space_group_IT_number       1

loop_
  _space_group_symop_operation_xyz
  'x, y, z'

loop_
  _atom_site_type_symbol
  _atom_site_label
  _atom_site_symmetry_multiplicity
  _atom_site_fract_x
  _atom_site_fract_y
  _atom_site_fract_z
  _atom_site_occupancy
  Cu  Cu1       1.0  0.8684381288440439  0.8956696031833974  0.2152426326700764  1.0000
  Cu  Cu2       1.0  0.720113089212909  0.6444156262795788  0.9182377835186524  1.0000
  C   C1        1.0  0.32243162978776096  0.3198407869486304  0.9891863746769776  1.0000
  C   C2        1.0  0.05152768680520263  0.790537184506312  0.5409440190288408  1.0000
  C   C3        1.0  0.6983643366041481  0.08793423270676515  0.9724706310174234  1.0000
  C   C4        1.0  0.538299470090761  0.5242184357993955  0.3817074995699713  1.0000
  C   C5        1.0  0.8633946502667486  0.012094817351466898  0.46432155882768666  1.0000
  C   C6        1.0  0.902511797022873  0.6426501624990181  0.06375710686197084  1.0000
  N   N1        1.0  0.3350883889577446  0.24330890531921923  0.5523233493173261  1.0000
  N   N2        1.0  0.3975909605646072  0.5984181361856151  0.7252024693788331  1.0000
  N   N3        1.0  0.5149393006439893  0.32181530297389815  0.5753667103845725  1.0000
  N   N4        1.0  0.24524134155928423  0.5770571715016304  0.7701815988521157  1.0000
  O   O1        1.0  0.45612323123218684  0.3634936526314981  0.9024355629483763  1.0000
  O   O2        1.0  0.9322988529633245  0.6721464587922628  0.6156451580310647  1.0000
  O   O3        1.0  0.7278421607125221  0.09752499476191967  0.11717098108690804  1.0000
  O   O4        1.0  0.5387826382829166  0.38708730704689587  0.27738337952146597  1.0000
  O   O5        1.0  0.21152807597192466  0.8249649738251152  0.4814793788538807  1.0000
  O   O6        1.0  0.17542202281344166  0.2620496236612073  0.06937308220922445  1.0000
  O   O7        1.0  0.4963244973281636  0.6734282670850071  0.45299768871528223  1.0000
  O   O8        1.0  0.6477662284431756  0.0921091245731136  0.848184746710754  1.0000
  O   O9        1.0  0.9183365826131337  0.1876943918224508  0.5452580562210065  1.0000
  O   O10       1.0  0.9438902854587726  0.48793203454777223  0.06819757055464765  1.0000
data_image192
_chemical_formula_structural       Cu2C6N4O10
_chemical_formula_sum              "Cu2 C6 N4 O10"
_cell_length_a       6.950721000000001
_cell_length_b       7.113486077992492
_cell_length_c       8.6539786637408
_cell_angle_alpha    105.43300670560022
_cell_angle_beta     90.64948243757532
_cell_angle_gamma    112.19062950933201

_space_group_name_H-M_alt    "P 1"
_space_group_IT_number       1

loop_
  _space_group_symop_operation_xyz
  'x, y, z'

loop_
  _atom_site_type_symbol
  _atom_site_label
  _atom_site_symmetry_multiplicity
  _atom_site_fract_x
  _atom_site_fract_y
  _atom_site_fract_z
  _atom_site_occupancy
  Cu  Cu1       1.0  0.8303235170373673  0.8795317243776088  0.18762693313206533  1.0000
  Cu  Cu2       1.0  0.7074178371538604  0.6567128939171105  0.8942503434942938  1.0000
  C   C1        1.0  0.3099141798374499  0.2946596762032457  0.966746368565439  1.0000
  C   C2        1.0  0.05390572213493861  0.8005005353271457  0.6197183081353919  1.0000
  C   C3        1.0  0.7733740875985611  0.022652491477769043  0.9685461693661674  1.0000
  C   C4        1.0  0.5440553446786852  0.5017836765577619  0.3410589955168114  1.0000
  C   C5        1.0  0.7767321718380753  0.022923551072700585  0.39797287511309765  1.0000
  C   C6        1.0  0.8695451870144749  0.6218015443930447  0.06648825139322552  1.0000
  N   N1        1.0  0.5129968769542635  0.26609005689862086  0.5243993309034665  1.0000
  N   N2        1.0  0.26997722319381157  0.7362530344805216  0.8303009639625644  1.0000
  N   N3        1.0  0.6175859599910565  0.3736767002799173  0.6401554494260391  1.0000
  N   N4        1.0  0.40951438591104183  0.7100976820080693  0.8486392767077162  1.0000
  O   O1        1.0  0.3677583545839288  0.15944175708739278  0.9250647236880193  1.0000
  O   O2        1.0  0.8794750371438808  0.7307148441900588  0.6521986962484272  1.0000
  O   O3        1.0  0.777423531106268  0.09422599495168482  0.11397508974023962  1.0000
  O   O4        1.0  0.6078111160420256  0.38593312539730174  0.2630819879053503  1.0000
  O   O5        1.0  0.16846162654387506  0.8860279444025856  0.5457352920003278  1.0000
  O   O6        1.0  0.2856743897844484  0.45276708328678295  0.0542144685861472  1.0000
  O   O7        1.0  0.4165998759483884  0.5852933070401269  0.3904643441705278  1.0000
  O   O8        1.0  0.8314591427497287  0.026762927781114998  0.8394381307297167  1.0000
  O   O9        1.0  0.7217586175709257  0.9808563712964096  0.5114216106751601  1.0000
  O   O10       1.0  0.9466287635200203  0.5397685652914246  0.12663977970633009  1.0000
data_image193
_chemical_formula_structural       Cu2C6N4O10
_chemical_formula_sum              "Cu2 C6 N4 O10"
_cell_length_a       6.950721000000001
_cell_length_b       7.113486077992492
_cell_length_c       8.6539786637408
_cell_angle_alpha    105.43300670560022
_cell_angle_beta     90.64948243757532
_cell_angle_gamma    112.19062950933201

_space_group_name_H-M_alt    "P 1"
_space_group_IT_number       1

loop_
  _space_group_symop_operation_xyz
  'x, y, z'

loop_
  _atom_site_type_symbol
  _atom_site_label
  _atom_site_symmetry_multiplicity
  _atom_site_fract_x
  _atom_site_fract_y
  _atom_site_fract_z
  _atom_site_occupancy
  Cu  Cu1       1.0  0.8553148438140477  0.9248407103083769  0.1855758873633734  1.0000
  Cu  Cu2       1.0  0.6702898295119928  0.6026203038301703  0.9100508619807098  1.0000
  C   C1        1.0  0.36948704848942265  0.29138897954459303  0.9238235891554963  1.0000
  C   C2        1.0  0.0013065182542072928  0.7787922083086911  0.6006902901812634  1.0000
  C   C3        1.0  0.9373655800890955  0.17206192717087654  0.9856147215527729  1.0000
  C   C4        1.0  0.37920577002445777  0.3778055074045905  0.29610648963786884  1.0000
  C   C5        1.0  0.6723641154813453  0.8145443582682623  0.3684276283376907  1.0000
  C   C6        1.0  0.9934643947333569  0.7369886635082512  0.090723644845473  1.0000
  N   N1        1.0  0.5441658151450415  0.22990250159414916  0.6462556658228202  1.0000
  N   N2        1.0  0.4576363635188986  0.8755908766996745  0.9046289815147351  1.0000
  N   N3        1.0  0.5586781123948307  0.3915396224653178  0.7210427793458554  1.0000
  N   N4        1.0  0.4089765031549837  0.7458730822640984  0.7891018310831516  1.0000
  O   O1        1.0  0.393373403037893  0.14086762502831934  0.909218799883865  1.0000
  O   O2        1.0  0.8316610914244114  0.7113280416477512  0.6360829748522863  1.0000
  O   O3        1.0  0.9351998191933784  0.2080580906444658  0.12564844884474935  1.0000
  O   O4        1.0  0.49630896672095526  0.3376747836676519  0.19298211730065498  1.0000
  O   O5        1.0  0.17987239267195287  0.8910484052952818  0.603650010979141  1.0000
  O   O6        1.0  0.3797417117936666  0.4763965699562176  0.9536864698904813  1.0000
  O   O7        1.0  0.22853756612273726  0.4063576243289664  0.3445710761791574  1.0000
  O   O8        1.0  0.912896377478164  0.12668344986193958  0.8318918346225885  1.0000
  O   O9        1.0  0.5684881674288655  0.8698025362264389  0.4574452888897198  1.0000
  O   O10       1.0  0.9683045398919232  0.6361532404520266  0.1890512278555868  1.0000
data_image194
_chemical_formula_structural       Cu2C6N4O10
_chemical_formula_sum              "Cu2 C6 N4 O10"
_cell_length_a       6.950721000000001
_cell_length_b       7.113486077992492
_cell_length_c       8.6539786637408
_cell_angle_alpha    105.43300670560022
_cell_angle_beta     90.64948243757532
_cell_angle_gamma    112.19062950933201

_space_group_name_H-M_alt    "P 1"
_space_group_IT_number       1

loop_
  _space_group_symop_operation_xyz
  'x, y, z'

loop_
  _atom_site_type_symbol
  _atom_site_label
  _atom_site_symmetry_multiplicity
  _atom_site_fract_x
  _atom_site_fract_y
  _atom_site_fract_z
  _atom_site_occupancy
  Cu  Cu1       1.0  0.8055734892293689  0.8889078671962625  0.2304779166722931  1.0000
  Cu  Cu2       1.0  0.7218182685917675  0.6092442745262947  0.01366307764071073  1.0000
  C   C1        1.0  0.2989237501023122  0.2318978202505901  0.9500087022509638  1.0000
  C   C2        1.0  0.013307124046903337  0.881987611267081  0.5097261371760609  1.0000
  C   C3        1.0  0.8725962870604391  0.17947554747499272  0.912810896576306  1.0000
  C   C4        1.0  0.32672220610926456  0.3765020029600086  0.3677868644621526  1.0000
  C   C5        1.0  0.5717574869608364  0.9163439302943782  0.3209628268668002  1.0000
  C   C6        1.0  0.9779490945072528  0.6197945193073306  0.09947423975440965  1.0000
  N   N1        1.0  0.71774662174708  0.3391116917330417  0.5944381237617518  1.0000
  N   N2        1.0  0.5294538972699607  0.6952752089162635  0.7262701967908061  1.0000
  N   N3        1.0  0.7193256009510962  0.41949337637380446  0.7262223289999554  1.0000
  N   N4        1.0  0.3926629024140159  0.7449435994502893  0.7356117897931373  1.0000
  O   O1        1.0  0.33778622901099187  0.0770508437322886  0.9033353906316509  1.0000
  O   O2        1.0  0.8954684391380171  0.7328661775663861  0.543808062645144  1.0000
  O   O3        1.0  0.9277410064533964  0.23385270114335444  0.05816054366312895  1.0000
  O   O4        1.0  0.5101493182146025  0.3743909636166669  0.3513279436852622  1.0000
  O   O5        1.0  0.17664476819056246  0.016658594654370695  0.5143214645879914  1.0000
  O   O6        1.0  0.34249390965308246  0.40824062952185064  0.9615564161582922  1.0000
  O   O7        1.0  0.1982311554018748  0.42360580692476324  0.40705981305723293  1.0000
  O   O8        1.0  0.8011762923507763  0.12768445140834173  0.7877254984804356  1.0000
  O   O9        1.0  0.43511975103315603  0.8149525415513924  0.3757267880244824  1.0000
  O   O10       1.0  0.14065743616163306  0.7236513983761284  0.07690140883067448  1.0000
data_image195
_chemical_formula_structural       Cu2C6N4O10
_chemical_formula_sum              "Cu2 C6 N4 O10"
_cell_length_a       6.950721000000001
_cell_length_b       7.113486077992492
_cell_length_c       8.6539786637408
_cell_angle_alpha    105.43300670560022
_cell_angle_beta     90.64948243757532
_cell_angle_gamma    112.19062950933201

_space_group_name_H-M_alt    "P 1"
_space_group_IT_number       1

loop_
  _space_group_symop_operation_xyz
  'x, y, z'

loop_
  _atom_site_type_symbol
  _atom_site_label
  _atom_site_symmetry_multiplicity
  _atom_site_fract_x
  _atom_site_fract_y
  _atom_site_fract_z
  _atom_site_occupancy
  Cu  Cu1       1.0  0.7899169374258543  0.8315909340937715  0.2794570562953874  1.0000
  Cu  Cu2       1.0  0.7559285500928601  0.567827665678771  0.0073229023399445925  1.0000
  C   C1        1.0  0.37157174847349644  0.2564190388191579  0.9619869146219128  1.0000
  C   C2        1.0  0.011130516577786331  0.9662623698773178  0.5048659145698668  1.0000
  C   C3        1.0  0.9577461515620824  0.11636711998414828  0.8776375117699011  1.0000
  C   C4        1.0  0.261177781401751  0.4375843177047596  0.36104756055258097  1.0000
  C   C5        1.0  0.5235480589795488  0.8133417491166711  0.2927801779399766  1.0000
  C   C6        1.0  0.995059410406611  0.735694614955823  0.13063351302788564  1.0000
  N   N1        1.0  0.7777364506798432  0.32874626719264466  0.5714068763007549  1.0000
  N   N2        1.0  0.3697761520931584  0.6871403623792216  0.7005678500670642  1.0000
  N   N3        1.0  0.8422946499559469  0.47698475489592473  0.6731122632526769  1.0000
  N   N4        1.0  0.21958216240161188  0.6588261098671846  0.7591910702958815  1.0000
  O   O1        1.0  0.2668463339592346  0.10085945734857424  0.9906042058461941  1.0000
  O   O2        1.0  0.042400823551067716  0.7989550072721201  0.466617602688135  1.0000
  O   O3        1.0  0.02413986672194841  0.3029293799862889  0.9275329426522032  1.0000
  O   O4        1.0  0.3935312424855487  0.4061565225237622  0.41093904457371055  1.0000
  O   O5        1.0  0.9662133740500987  0.12233993300680046  0.5073757404888557  1.0000
  O   O6        1.0  0.47870935855209423  0.43758583583361904  0.9545662108580109  1.0000
  O   O7        1.0  0.11977496501800733  0.47567359415016375  0.3215721811832484  1.0000
  O   O8        1.0  0.8930471633612909  0.9409074007392126  0.8030167872079117  1.0000
  O   O9        1.0  0.4163939748323515  0.8569221496774457  0.385206461934656  1.0000
  O   O10       1.0  0.17501366672611463  0.831535164803438  0.13440067600402714  1.0000
data_image196
_chemical_formula_structural       Cu2C6N4O10
_chemical_formula_sum              "Cu2 C6 N4 O10"
_cell_length_a       6.950721000000001
_cell_length_b       7.113486077992492
_cell_length_c       8.6539786637408
_cell_angle_alpha    105.43300670560022
_cell_angle_beta     90.64948243757532
_cell_angle_gamma    112.19062950933201

_space_group_name_H-M_alt    "P 1"
_space_group_IT_number       1

loop_
  _space_group_symop_operation_xyz
  'x, y, z'

loop_
  _atom_site_type_symbol
  _atom_site_label
  _atom_site_symmetry_multiplicity
  _atom_site_fract_x
  _atom_site_fract_y
  _atom_site_fract_z
  _atom_site_occupancy
  Cu  Cu1       1.0  0.758309208971738  0.7543474486928471  0.21307249793738955  1.0000
  Cu  Cu2       1.0  0.7894140082415407  0.4874072262042979  0.9446565538493897  1.0000
  C   C1        1.0  0.39528220830135813  0.2417839059496104  0.9618746220275175  1.0000
  C   C2        1.0  0.029584766274610663  0.08195811856591906  0.5963588074089285  1.0000
  C   C3        1.0  0.9037381665592414  0.13945632739739788  0.8803359254347549  1.0000
  C   C4        1.0  0.12356703263127218  0.4118716237804949  0.36554039241898323  1.0000
  C   C5        1.0  0.66055846326903  0.8879390007218511  0.4013676777403101  1.0000
  C   C6        1.0  0.03011181122517015  0.7066958190296533  0.07957576270228325  1.0000
  N   N1        1.0  0.8149865397103073  0.47144335977588914  0.6543215363673192  1.0000
  N   N2        1.0  0.42095075251129244  0.7809781278612629  0.8798714066381668  1.0000
  N   N3        1.0  0.7384648840971952  0.5813925970812561  0.6415896239358372  1.0000
  N   N4        1.0  0.386623404947368  0.6497667439664492  0.7742017609044192  1.0000
  O   O1        1.0  0.2564750595896434  0.1954582929625908  0.04226486043326472  1.0000
  O   O2        1.0  0.10772197099323273  0.9556692885460176  0.6167936550104776  1.0000
  O   O3        1.0  0.9837736188987682  0.3193631592013062  0.9005409597732297  1.0000
  O   O4        1.0  0.28184047429025316  0.40141611586589976  0.3877002308228867  1.0000
  O   O5        1.0  0.9838670297494847  0.13244127077744716  0.47533510779157906  1.0000
  O   O6        1.0  0.5009451745158857  0.3200617359588258  0.8723892477773152  1.0000
  O   O7        1.0  0.9880419927684801  0.44572459910369355  0.30910638457741957  1.0000
  O   O8        1.0  0.786476568600499  0.9618955526025434  0.8610821825869537  1.0000
  O   O9        1.0  0.5433536907858276  0.9568275670366027  0.45144915331271246  1.0000
  O   O10       1.0  0.18716991106511505  0.815683377613199  0.1704000708304574  1.0000
data_image197
_chemical_formula_structural       Cu2C6N4O10
_chemical_formula_sum              "Cu2 C6 N4 O10"
_cell_length_a       6.950721000000001
_cell_length_b       7.113486077992492
_cell_length_c       8.6539786637408
_cell_angle_alpha    105.43300670560022
_cell_angle_beta     90.64948243757532
_cell_angle_gamma    112.19062950933201

_space_group_name_H-M_alt    "P 1"
_space_group_IT_number       1

loop_
  _space_group_symop_operation_xyz
  'x, y, z'

loop_
  _atom_site_type_symbol
  _atom_site_label
  _atom_site_symmetry_multiplicity
  _atom_site_fract_x
  _atom_site_fract_y
  _atom_site_fract_z
  _atom_site_occupancy
  Cu  Cu1       1.0  0.7185508539352796  0.7041536921592747  0.2363735645208534  1.0000
  Cu  Cu2       1.0  0.7892560341751587  0.5372916473128403  0.9604101324573626  1.0000
  C   C1        1.0  0.5046010769767012  0.22520428188267097  0.9119440627187171  1.0000
  C   C2        1.0  0.1001959570144011  0.9964044222957935  0.49215664481496124  1.0000
  C   C3        1.0  0.8960814467701005  0.13419107780609796  0.9522458669886151  1.0000
  C   C4        1.0  0.0893195411813295  0.48486922309939917  0.3804208541785855  1.0000
  C   C5        1.0  0.5643648836836614  0.8707162465159546  0.30201461373598376  1.0000
  C   C6        1.0  0.03398216414033217  0.7483905973395765  0.13007774502116096  1.0000
  N   N1        1.0  0.8183543054515869  0.618998729675178  0.6464295915852298  1.0000
  N   N2        1.0  0.3308512687531937  0.6049444095139744  0.8647196654045615  1.0000
  N   N3        1.0  0.6622985007148428  0.5157575611791534  0.5637156756530484  1.0000
  N   N4        1.0  0.2971917096051304  0.6705117619096281  0.7619084743148019  1.0000
  O   O1        1.0  0.36685528199572637  0.11316756245320467  0.9496258897197304  1.0000
  O   O2        1.0  0.20279939177163125  0.9400274149980798  0.571275604060218  1.0000
  O   O3        1.0  0.9989572718971385  0.3047095943828786  0.05432568261148074  1.0000
  O   O4        1.0  0.26988265104601533  0.5452874239525158  0.41711710807639557  1.0000
  O   O5        1.0  0.9982207381991998  0.12150033797224236  0.5331640552605994  1.0000
  O   O6        1.0  0.6094267685208705  0.3178074142836921  0.8218460041321095  1.0000
  O   O7        1.0  0.9110727591084415  0.4565621170481575  0.3513529290726596  1.0000
  O   O8        1.0  0.8244431706505342  0.9846683437376194  0.8446258361300791  1.0000
  O   O9        1.0  0.5597938167822345  0.9665031468964844  0.4221925570446307  1.0000
  O   O10       1.0  0.22214871795607016  0.8273580406590806  0.1503177055366299  1.0000
data_image198
_chemical_formula_structural       Cu2C6N4O10
_chemical_formula_sum              "Cu2 C6 N4 O10"
_cell_length_a       6.950721000000001
_cell_length_b       7.113486077992492
_cell_length_c       8.6539786637408
_cell_angle_alpha    105.43300670560022
_cell_angle_beta     90.64948243757532
_cell_angle_gamma    112.19062950933201

_space_group_name_H-M_alt    "P 1"
_space_group_IT_number       1

loop_
  _space_group_symop_operation_xyz
  'x, y, z'

loop_
  _atom_site_type_symbol
  _atom_site_label
  _atom_site_symmetry_multiplicity
  _atom_site_fract_x
  _atom_site_fract_y
  _atom_site_fract_z
  _atom_site_occupancy
  Cu  Cu1       1.0  0.6038111370460901  0.6701286270674267  0.2722641149554043  1.0000
  Cu  Cu2       1.0  0.8641950036011693  0.6688641884986751  0.03273148547446092  1.0000
  C   C1        1.0  0.47164477569745317  0.17340415141158258  0.8159800616937407  1.0000
  C   C2        1.0  0.0869177694853216  0.02015894045432498  0.5328693592111604  1.0000
  C   C3        1.0  0.9739237716141514  0.059599399557500155  0.9461721246681825  1.0000
  C   C4        1.0  0.10004527145725825  0.462055133417296  0.4019804579940416  1.0000
  C   C5        1.0  0.6903826837346908  0.9569540042678081  0.3790196485887736  1.0000
  C   C6        1.0  0.12986092308461306  0.7293664943306716  0.14519073432487814  1.0000
  N   N1        1.0  0.6567147257760545  0.5419878128006044  0.5070219736059407  1.0000
  N   N2        1.0  0.37158163383970744  0.6508828727796556  0.8093949078254099  1.0000
  N   N3        1.0  0.4966252546447001  0.4634647515444097  0.5353607387414423  1.0000
  N   N4        1.0  0.19696028014201172  0.6107938755297448  0.7837258538580922  1.0000
  O   O1        1.0  0.3366417204145924  0.10400965966568196  0.8774841331645654  1.0000
  O   O2        1.0  0.18855197209151872  0.9333322688521131  0.4601735531527402  1.0000
  O   O3        1.0  0.0742079009842543  0.20550305962829363  0.040135672403539546  1.0000
  O   O4        1.0  0.2666710137925189  0.599816227825066  0.44743344455029205  1.0000
  O   O5        1.0  0.0962950117497844  0.2098728035483548  0.5560463049568525  1.0000
  O   O6        1.0  0.6212953603464653  0.20250617978391838  0.7363626382538703  1.0000
  O   O7        1.0  0.9139368600729963  0.377467998639355  0.37173468626632467  1.0000
  O   O8        1.0  0.8545938436864944  0.9284590428436883  0.8188084580079837  1.0000
  O   O9        1.0  0.6273951104920281  0.0851605547499562  0.41043529799785455  1.0000
  O   O10       1.0  0.28439641944111527  0.7077187713668643  0.10285880735702152  1.0000
data_image199
_chemical_formula_structural       Cu2C6N4O10
_chemical_formula_sum              "Cu2 C6 N4 O10"
_cell_length_a       6.950721000000001
_cell_length_b       7.113486077992492
_cell_length_c       8.6539786637408
_cell_angle_alpha    105.43300670560022
_cell_angle_beta     90.64948243757532
_cell_angle_gamma    112.19062950933201

_space_group_name_H-M_alt    "P 1"
_space_group_IT_number       1

loop_
  _space_group_symop_operation_xyz
  'x, y, z'

loop_
  _atom_site_type_symbol
  _atom_site_label
  _atom_site_symmetry_multiplicity
  _atom_site_fract_x
  _atom_site_fract_y
  _atom_site_fract_z
  _atom_site_occupancy
  Cu  Cu1       1.0  0.6750942156008104  0.6685418496443777  0.30538231415187533  1.0000
  Cu  Cu2       1.0  0.8816937827381136  0.6881573381068788  0.998214296021608  1.0000
  C   C1        1.0  0.5091641837016073  0.18219917882558226  0.8198890881402323  1.0000
  C   C2        1.0  0.024401724624298734  0.06687488794178975  0.5041490349721842  1.0000
  C   C3        1.0  0.041903360931602844  0.07766125061715323  0.9939117556796888  1.0000
  C   C4        1.0  0.9999935000285048  0.5726658492852323  0.45753090417870534  1.0000
  C   C5        1.0  0.6283704515275798  0.9426678072617647  0.40194289380298426  1.0000
  C   C6        1.0  0.09572938916433738  0.6763020312989338  0.09849765963640664  1.0000
  N   N1        1.0  0.47453008402221186  0.38659515308722536  0.343252777976081  1.0000
  N   N2        1.0  0.35662511869016944  0.5660467291173938  0.7500876616960809  1.0000
  N   N3        1.0  0.5371735266739585  0.3317911577963102  0.43891010832809685  1.0000
  N   N4        1.0  0.32897020417530853  0.6838765765534593  0.8545193935488888  1.0000
  O   O1        1.0  0.34035421040764774  0.08124560902283123  0.8083419535940018  1.0000
  O   O2        1.0  0.9713759838580116  0.917382409841097  0.3888366287426426  1.0000
  O   O3        1.0  0.126914429160865  0.2773635713571494  0.019772999182002704  1.0000
  O   O4        1.0  0.10683799901218277  0.5630373426830781  0.5533094650657143  1.0000
  O   O5        1.0  0.09204464312769915  0.14973761760685678  0.6465353542486931  1.0000
  O   O6        1.0  0.6977768323774907  0.26217060617899623  0.8427611432298158  1.0000
  O   O7        1.0  0.892208647032458  0.5076009341213286  0.33238644621786695  1.0000
  O   O8        1.0  0.8936367992964889  0.9204913525090155  0.9008931244653127  1.0000
  O   O9        1.0  0.6713106462205662  0.0766998611246343  0.34292628263580566  1.0000
  O   O10       1.0  0.24966636010223953  0.7031313925404394  0.16741433264986866  1.0000
data_image200
_chemical_formula_structural       Cu2C6N4O10
_chemical_formula_sum              "Cu2 C6 N4 O10"
_cell_length_a       6.950721000000001
_cell_length_b       7.113486077992492
_cell_length_c       8.6539786637408
_cell_angle_alpha    105.43300670560022
_cell_angle_beta     90.64948243757532
_cell_angle_gamma    112.19062950933201

_space_group_name_H-M_alt    "P 1"
_space_group_IT_number       1

loop_
  _space_group_symop_operation_xyz
  'x, y, z'

loop_
  _atom_site_type_symbol
  _atom_site_label
  _atom_site_symmetry_multiplicity
  _atom_site_fract_x
  _atom_site_fract_y
  _atom_site_fract_z
  _atom_site_occupancy
  Cu  Cu1       1.0  0.7809951667114083  0.7243342224252051  0.31773715994780705  1.0000
  Cu  Cu2       1.0  0.8710702608696128  0.6776536503309796  0.9708970583887567  1.0000
  C   C1        1.0  0.5059768278941611  0.056270332459309916  0.840749280300976  1.0000
  C   C2        1.0  0.024521678093041958  0.2125954422030918  0.586273212547886  1.0000
  C   C3        1.0  0.03066784834971582  0.1266133660838562  0.9846429493560378  1.0000
  C   C4        1.0  0.8856252060459265  0.5351677155579302  0.47414070290566135  1.0000
  C   C5        1.0  0.6414978790115072  0.8446220091996812  0.224595397483847  1.0000
  C   C6        1.0  0.01693506957711488  0.640969243657537  0.13223665748534624  1.0000
  N   N1        1.0  0.33235370164245215  0.4299865039307891  0.34666966483703443  1.0000
  N   N2        1.0  0.5965143773762294  0.5549085703293339  0.7269233599021387  1.0000
  N   N3        1.0  0.4179477895406518  0.4236667353693728  0.4531798947812158  1.0000
  N   N4        1.0  0.5032100429206943  0.6171725226762668  0.8217893461292294  1.0000
  O   O1        1.0  0.4431979558528365  0.9451866991146214  0.7106300146128035  1.0000
  O   O2        1.0  0.9883360006722924  0.10666205896906034  0.43815113110898674  1.0000
  O   O3        1.0  0.19853413217898427  0.23120665056456713  0.043075379061667585  1.0000
  O   O4        1.0  0.9658056144072762  0.5431278042253074  0.6008136843063379  1.0000
  O   O5        1.0  0.05631902124262167  0.20827196164469175  0.7119302822740858  1.0000
  O   O6        1.0  0.5536726498937112  0.20456466525899247  0.9642443651374227  1.0000
  O   O7        1.0  0.9095122315850085  0.5251045443516029  0.3310624354893197  1.0000
  O   O8        1.0  0.8397874685953189  0.9798122014450241  0.9422364672157322  1.0000
  O   O9        1.0  0.5479029495951824  0.953124094069943  0.27144538316772293  1.0000
  O   O10       1.0  0.16855852637211344  0.6087051206723362  0.11397067825360231  1.0000
