data_image0
_chemical_formula_structural       Sn4W4O16
_chemical_formula_sum              "Sn4 W4 O16"
_cell_length_a       7.620549
_cell_length_b       7.620549
_cell_length_c       7.620549
_cell_angle_alpha    90.0
_cell_angle_beta     90.0
_cell_angle_gamma    90.0

_space_group_name_H-M_alt    "P 1"
_space_group_IT_number       1

loop_
  _space_group_symop_operation_xyz
  'x, y, z'

loop_
  _atom_site_type_symbol
  _atom_site_label
  _atom_site_symmetry_multiplicity
  _atom_site_fract_x
  _atom_site_fract_y
  _atom_site_fract_z
  _atom_site_occupancy
  Sn  Sn1       1.0  0.819879  0.819879  0.819879  1.0000
  Sn  Sn2       1.0  0.680121  0.18012100000000006  0.319879  1.0000
  Sn  Sn3       1.0  0.319879  0.680121  0.18012100000000006  1.0000
  Sn  Sn4       1.0  0.18012100000000006  0.319879  0.6801210000000001  1.0000
  W   W1        1.0  0.165477  0.165477  0.165477  1.0000
  W   W2        1.0  0.334523  0.834523  0.665477  1.0000
  W   W3        1.0  0.665477  0.334523  0.834523  1.0000
  W   W4        1.0  0.834523  0.665477  0.334523  1.0000
  O   O1        1.0  0.647938  0.232936  0.04847100000000001  1.0000
  O   O2        1.0  0.147938  0.267064  0.951529  1.0000
  O   O3        1.0  0.3520620000000001  0.732936  0.451529  1.0000
  O   O4        1.0  0.267064  0.951529  0.14793799999999996  1.0000
  O   O5        1.0  0.451529  0.3520620000000001  0.7329360000000001  1.0000
  O   O6        1.0  0.951529  0.147938  0.267064  1.0000
  O   O7        1.0  0.232936  0.048471  0.647938  1.0000
  O   O8        1.0  0.048471  0.647938  0.23293600000000003  1.0000
  O   O9        1.0  0.299517  0.299517  0.299517  1.0000
  O   O10       1.0  0.200483  0.700483  0.7995170000000001  1.0000
  O   O11       1.0  0.799517  0.200483  0.700483  1.0000
  O   O12       1.0  0.700483  0.799517  0.200483  1.0000
  O   O13       1.0  0.852062  0.767064  0.548471  1.0000
  O   O14       1.0  0.548471  0.852062  0.767064  1.0000
  O   O15       1.0  0.767064  0.548471  0.852062  1.0000
  O   O16       1.0  0.732936  0.451529  0.3520620000000001  1.0000
data_image1
_chemical_formula_structural       Sn4W4O16
_chemical_formula_sum              "Sn4 W4 O16"
_cell_length_a       7.620549
_cell_length_b       7.620549
_cell_length_c       7.620549
_cell_angle_alpha    90.0
_cell_angle_beta     90.0
_cell_angle_gamma    90.0

_space_group_name_H-M_alt    "P 1"
_space_group_IT_number       1

loop_
  _space_group_symop_operation_xyz
  'x, y, z'

loop_
  _atom_site_type_symbol
  _atom_site_label
  _atom_site_symmetry_multiplicity
  _atom_site_fract_x
  _atom_site_fract_y
  _atom_site_fract_z
  _atom_site_occupancy
  Sn  Sn1       1.0  0.8830836928654844  0.8754315491563526  0.8387839732382801  1.0000
  Sn  Sn2       1.0  0.6652346533215949  0.1533113331043991  0.3354645210774541  1.0000
  Sn  Sn3       1.0  0.33038401110153875  0.6641634885563357  0.20726551587438544  1.0000
  Sn  Sn4       1.0  0.12243033473331497  0.32817193339569345  0.6430869044859057  1.0000
  W   W1        1.0  0.17286015728333465  0.17307773233739254  0.1759649006753031  1.0000
  W   W2        1.0  0.3564570707884463  0.8301037818949268  0.6682316310966312  1.0000
  W   W3        1.0  0.655086088811327  0.33834888183431927  0.8267217543755412  1.0000
  W   W4        1.0  0.8189547982200819  0.6510294050806229  0.31763869926625976  1.0000
  O   O1        1.0  0.6026494925736172  0.24466179064904736  0.0372739837088175  1.0000
  O   O2        1.0  0.1506786945330911  0.18789909279510447  0.9269700281845529  1.0000
  O   O3        1.0  0.33329070049788695  0.7142653183018568  0.4597123422967069  1.0000
  O   O4        1.0  0.1945416688602202  0.9228405355854973  0.17761519244492474  1.0000
  O   O5        1.0  0.44895576711631213  0.38566213861551557  0.7357662872249832  1.0000
  O   O6        1.0  0.9922458753986673  0.19506064585238533  0.33618383745180774  1.0000
  O   O7        1.0  0.2749139940860206  0.06474683772849633  0.6409663010475858  1.0000
  O   O8        1.0  0.04071861053387546  0.6280117786706229  0.17941898598984576  1.0000
  O   O9        1.0  0.3621099037203941  0.29397312201074854  0.2830920580914371  1.0000
  O   O10       1.0  0.18822284812510232  0.7641191050646456  0.7966861598546313  1.0000
  O   O11       1.0  0.8012876770146382  0.1759636061160192  0.7012885866960079  1.0000
  O   O12       1.0  0.7060774331354722  0.8229419594112308  0.1720996089355382  1.0000
  O   O13       1.0  0.8324249691096894  0.7412684775521771  0.5347472320221314  1.0000
  O   O14       1.0  0.5677425484409692  0.7787365831141642  0.7776629101040301  1.0000
  O   O15       1.0  0.7685639643598244  0.5539858165744462  0.8595102295742649  1.0000
  O   O16       1.0  0.7067286143434488  0.45275075183479974  0.30591846719151855  1.0000
data_image2
_chemical_formula_structural       Sn4W4O16
_chemical_formula_sum              "Sn4 W4 O16"
_cell_length_a       7.620549
_cell_length_b       7.620549
_cell_length_c       7.620549
_cell_angle_alpha    90.0
_cell_angle_beta     90.0
_cell_angle_gamma    90.0

_space_group_name_H-M_alt    "P 1"
_space_group_IT_number       1

loop_
  _space_group_symop_operation_xyz
  'x, y, z'

loop_
  _atom_site_type_symbol
  _atom_site_label
  _atom_site_symmetry_multiplicity
  _atom_site_fract_x
  _atom_site_fract_y
  _atom_site_fract_z
  _atom_site_occupancy
  Sn  Sn1       1.0  0.9117521563326629  0.8924019640029267  0.8638486736678173  1.0000
  Sn  Sn2       1.0  0.7021147623958007  0.13456825676302725  0.28077967482880395  1.0000
  Sn  Sn3       1.0  0.29756052703564406  0.6616926658371562  0.18192939057279228  1.0000
  Sn  Sn4       1.0  0.12582615085164406  0.308434784817746  0.6358619896548885  1.0000
  W   W1        1.0  0.18913921351637772  0.20156957413850454  0.17638625469301664  1.0000
  W   W2        1.0  0.370468706134761  0.8459333351049718  0.715491890207803  1.0000
  W   W3        1.0  0.6454780033978065  0.3420509401849597  0.7949479097233664  1.0000
  W   W4        1.0  0.7801521416062475  0.625498779151473  0.32990825109431937  1.0000
  O   O1        1.0  0.6416470877701015  0.22779518361088208  0.9976672479953569  1.0000
  O   O2        1.0  0.13900806461099496  0.24190802700810587  0.9422635676906544  1.0000
  O   O3        1.0  0.3375846668515799  0.6672626259855965  0.5483525164966639  1.0000
  O   O4        1.0  0.22025157977346627  0.9784979739571835  0.18699724758093905  1.0000
  O   O5        1.0  0.4192674065943751  0.38963347593607905  0.758860220113577  1.0000
  O   O6        1.0  0.9602456213507683  0.1997796288487339  0.2996004836548745  1.0000
  O   O7        1.0  0.27678559740061964  0.030529110666893438  0.5855245940214309  1.0000
  O   O8        1.0  0.9915549076991966  0.6068766461737797  0.13021687586856592  1.0000
  O   O9        1.0  0.39905935989297886  0.27268725361671  0.24251372143100103  1.0000
  O   O10       1.0  0.21847936051668485  0.8393191220165919  0.8765259519858221  1.0000
  O   O11       1.0  0.7652745304169094  0.14464826945449769  0.6807283075549737  1.0000
  O   O12       1.0  0.5752032575365995  0.7508371865135556  0.2714128420736539  1.0000
  O   O13       1.0  0.8973800576123001  0.7153458207056418  0.5070027186808326  1.0000
  O   O14       1.0  0.5868148647812518  0.8534489305105578  0.788451120199258  1.0000
  O   O15       1.0  0.7757372285236025  0.5380120016217863  0.8205151665478919  1.0000
  O   O16       1.0  0.712465307130895  0.4179997672580302  0.41826464381494605  1.0000
data_image3
_chemical_formula_structural       Sn4W4O16
_chemical_formula_sum              "Sn4 W4 O16"
_cell_length_a       7.620549
_cell_length_b       7.620549
_cell_length_c       7.620549
_cell_angle_alpha    90.0
_cell_angle_beta     90.0
_cell_angle_gamma    90.0

_space_group_name_H-M_alt    "P 1"
_space_group_IT_number       1

loop_
  _space_group_symop_operation_xyz
  'x, y, z'

loop_
  _atom_site_type_symbol
  _atom_site_label
  _atom_site_symmetry_multiplicity
  _atom_site_fract_x
  _atom_site_fract_y
  _atom_site_fract_z
  _atom_site_occupancy
  Sn  Sn1       1.0  0.899545189019312  0.8633485020354605  0.9269730739530609  1.0000
  Sn  Sn2       1.0  0.6899620008216364  0.1877266127614858  0.23665311555334584  1.0000
  Sn  Sn3       1.0  0.3217068244343172  0.7211401338021418  0.2483230019565976  1.0000
  Sn  Sn4       1.0  0.17064635180977705  0.3037763527397589  0.6182319100187701  1.0000
  W   W1        1.0  0.20264402851944385  0.1767236664073062  0.1663408762251195  1.0000
  W   W2        1.0  0.361475380917614  0.8178740473313149  0.7156630052943647  1.0000
  W   W3        1.0  0.6328965765198727  0.3384126455506165  0.7728937502129128  1.0000
  W   W4        1.0  0.7668059670584795  0.6203316401385836  0.32791497071260955  1.0000
  O   O1        1.0  0.6032147764187015  0.32825895762308144  0.03404075726404024  1.0000
  O   O2        1.0  0.1845353487507964  0.15910238030917737  0.928771769905755  1.0000
  O   O3        1.0  0.24234220473399665  0.6873655015615976  0.5308383940897416  1.0000
  O   O4        1.0  0.26748201978018127  0.9824583962381958  0.24183129473738613  1.0000
  O   O5        1.0  0.3759257170035618  0.42588491751028723  0.7343572563396701  1.0000
  O   O6        1.0  0.9892878278995375  0.31537382018294535  0.20313633289008898  1.0000
  O   O7        1.0  0.3374839001598894  0.04718087612936679  0.6197121076909173  1.0000
  O   O8        1.0  0.8874905005879443  0.6725652055112105  0.1073612524019722  1.0000
  O   O9        1.0  0.34582755320276565  0.32178781274231555  0.2770994745197981  1.0000
  O   O10       1.0  0.3045526878920427  0.7429531726909759  0.9333951083912185  1.0000
  O   O11       1.0  0.7383716443796828  0.12952757266264847  0.7085195753954596  1.0000
  O   O12       1.0  0.5662971735118069  0.7489304274581848  0.3140287832710744  1.0000
  O   O13       1.0  0.9192604357668601  0.7186171442889142  0.4545571310369572  1.0000
  O   O14       1.0  0.6062284334161121  0.80257460532027  0.7645660632517766  1.0000
  O   O15       1.0  0.7489174996529229  0.518865731556137  0.6769466648164904  1.0000
  O   O16       1.0  0.7310816076363913  0.4013783873514983  0.40898932215584816  1.0000
data_image4
_chemical_formula_structural       Sn4W4O16
_chemical_formula_sum              "Sn4 W4 O16"
_cell_length_a       7.620549
_cell_length_b       7.620549
_cell_length_c       7.620549
_cell_angle_alpha    90.0
_cell_angle_beta     90.0
_cell_angle_gamma    90.0

_space_group_name_H-M_alt    "P 1"
_space_group_IT_number       1

loop_
  _space_group_symop_operation_xyz
  'x, y, z'

loop_
  _atom_site_type_symbol
  _atom_site_label
  _atom_site_symmetry_multiplicity
  _atom_site_fract_x
  _atom_site_fract_y
  _atom_site_fract_z
  _atom_site_occupancy
  Sn  Sn1       1.0  0.8154417261126499  0.8365565522714262  0.9030290031312773  1.0000
  Sn  Sn2       1.0  0.7109526281494469  0.1874271873400047  0.23220433493325734  1.0000
  Sn  Sn3       1.0  0.29034078885369824  0.6875050147095629  0.23692684057707983  1.0000
  Sn  Sn4       1.0  0.22330443644497694  0.27224667488115367  0.6055529738607868  1.0000
  W   W1        1.0  0.1857434141967091  0.18940430797594252  0.11715424309261259  1.0000
  W   W2        1.0  0.3333228494169887  0.8032927977987167  0.7303701325215645  1.0000
  W   W3        1.0  0.6753641277714068  0.3922054163996733  0.8179222219204042  1.0000
  W   W4        1.0  0.7840510987925595  0.6291818300990966  0.3449208449801065  1.0000
  O   O1        1.0  0.6314382866636525  0.4289285661910923  0.07348686790443702  1.0000
  O   O2        1.0  0.13544205197304768  0.2235552241259091  0.887890966177194  1.0000
  O   O3        1.0  0.24420355531524862  0.5864934125439921  0.653159177632921  1.0000
  O   O4        1.0  0.29698494538166637  0.9922475039428329  0.18614168786897595  1.0000
  O   O5        1.0  0.49052570349055336  0.36133113211281714  0.6615388733998181  1.0000
  O   O6        1.0  0.9774894133052947  0.27585985553533104  0.19494803142482373  1.0000
  O   O7        1.0  0.31969662971402424  0.9698015557114555  0.5874375826248401  1.0000
  O   O8        1.0  0.8724809145550733  0.6634440086018069  0.11554619287057881  1.0000
  O   O9        1.0  0.33277796886523575  0.36954156587639364  0.20450028118166277  1.0000
  O   O10       1.0  0.19652318360998697  0.8175256122802455  0.9099967223997714  1.0000
  O   O11       1.0  0.7629971839075459  0.1837449234647542  0.8174871940249873  1.0000
  O   O12       1.0  0.555319797821117  0.7014684064815895  0.3697412431723556  1.0000
  O   O13       1.0  0.991417791555296  0.7383874414420467  0.3940090911656219  1.0000
  O   O14       1.0  0.5480959115981552  0.7196558394642134  0.8058333990760977  1.0000
  O   O15       1.0  0.8502659113653764  0.5400449384800249  0.7523094528535855  1.0000
  O   O16       1.0  0.7895099370809006  0.4030490531846359  0.41439671838403097  1.0000
data_image5
_chemical_formula_structural       Sn4W4O16
_chemical_formula_sum              "Sn4 W4 O16"
_cell_length_a       7.620549
_cell_length_b       7.620549
_cell_length_c       7.620549
_cell_angle_alpha    90.0
_cell_angle_beta     90.0
_cell_angle_gamma    90.0

_space_group_name_H-M_alt    "P 1"
_space_group_IT_number       1

loop_
  _space_group_symop_operation_xyz
  'x, y, z'

loop_
  _atom_site_type_symbol
  _atom_site_label
  _atom_site_symmetry_multiplicity
  _atom_site_fract_x
  _atom_site_fract_y
  _atom_site_fract_z
  _atom_site_occupancy
  Sn  Sn1       1.0  0.78097596812284  0.8374624319352215  0.9055478600265677  1.0000
  Sn  Sn2       1.0  0.7487818838794853  0.1748276720116262  0.28723255802782777  1.0000
  Sn  Sn3       1.0  0.2655061304246771  0.6776361839202021  0.23021664751558185  1.0000
  Sn  Sn4       1.0  0.21624183732103208  0.23964720958301292  0.6038533737227251  1.0000
  W   W1        1.0  0.24423309419332423  0.21486959815408394  0.06988849755762437  1.0000
  W   W2        1.0  0.2615181023601839  0.7950219347117014  0.7324870574967278  1.0000
  W   W3        1.0  0.6856413911518275  0.35099922432216396  0.8224119982269563  1.0000
  W   W4        1.0  0.805016251447981  0.6609867581304184  0.3557473680619633  1.0000
  O   O1        1.0  0.6103026168014074  0.32704015469092784  0.05337190592742041  1.0000
  O   O2        1.0  0.22405564498356592  0.4036341530211268  0.9125112084205074  1.0000
  O   O3        1.0  0.26784841304561213  0.6378325931189693  0.5481301812360881  1.0000
  O   O4        1.0  0.41151449615580427  0.06051783543529554  0.07876286366355081  1.0000
  O   O5        1.0  0.5262793245869981  0.302276798393309  0.6450883514476459  1.0000
  O   O6        1.0  0.05543026847056276  0.13360378643757542  0.19522357684480263  1.0000
  O   O7        1.0  0.2946160443459232  0.9568475621129671  0.5699590058207261  1.0000
  O   O8        1.0  0.8942911864855992  0.6752016293019282  0.12946276076422172  1.0000
  O   O9        1.0  0.21158956420949154  0.38061865270851447  0.32815804661749787  1.0000
  O   O10       1.0  0.08785276165174012  0.8051910709306292  0.9118110192937693  1.0000
  O   O11       1.0  0.8837562419388376  0.23371550368524138  0.7746891489717601  1.0000
  O   O12       1.0  0.5846688257808403  0.7262003312427253  0.3226136672691258  1.0000
  O   O13       1.0  0.9246207081192777  0.7882632648413006  0.5110926540419272  1.0000
  O   O14       1.0  0.4620741673750017  0.8263077999493379  0.8683163633719705  1.0000
  O   O15       1.0  0.7838089415244708  0.5843699399568643  0.7822271418314226  1.0000
  O   O16       1.0  0.7764317027044989  0.4315230610737306  0.38645555975658014  1.0000
data_image6
_chemical_formula_structural       Sn4W4O16
_chemical_formula_sum              "Sn4 W4 O16"
_cell_length_a       7.620549
_cell_length_b       7.620549
_cell_length_c       7.620549
_cell_angle_alpha    90.0
_cell_angle_beta     90.0
_cell_angle_gamma    90.0

_space_group_name_H-M_alt    "P 1"
_space_group_IT_number       1

loop_
  _space_group_symop_operation_xyz
  'x, y, z'

loop_
  _atom_site_type_symbol
  _atom_site_label
  _atom_site_symmetry_multiplicity
  _atom_site_fract_x
  _atom_site_fract_y
  _atom_site_fract_z
  _atom_site_occupancy
  Sn  Sn1       1.0  0.7836390888809345  0.8210919038259497  0.8855447390175162  1.0000
  Sn  Sn2       1.0  0.7447622610119047  0.16317115568459303  0.3122680523465436  1.0000
  Sn  Sn3       1.0  0.2789834214995869  0.6445605672290534  0.2845471027940162  1.0000
  Sn  Sn4       1.0  0.22231395803180123  0.31254040440116887  0.5837435303801208  1.0000
  W   W1        1.0  0.2793121752126725  0.271614200677822  0.10642038099166236  1.0000
  W   W2        1.0  0.25048815005526504  0.8155895565405024  0.7141035237791338  1.0000
  W   W3        1.0  0.7148670082505281  0.30967237311643786  0.7926222535951667  1.0000
  W   W4        1.0  0.7608241432819681  0.647362414115965  0.36421379095534173  1.0000
  O   O1        1.0  0.7191727368236698  0.3000970429301247  0.030097833153593365  1.0000
  O   O2        1.0  0.32559697728327536  0.3946630303384784  0.9142918874602296  1.0000
  O   O3        1.0  0.17625152567344196  0.5797317831283663  0.6052503332098074  1.0000
  O   O4        1.0  0.41898950290425563  0.08337761188334492  0.17104062174795595  1.0000
  O   O5        1.0  0.4818254105943886  0.2571282759034241  0.7053086649350693  1.0000
  O   O6        1.0  0.07057793591542172  0.1827304343795767  0.017419241668490747  1.0000
  O   O7        1.0  0.21177168298955523  0.9525421026338509  0.5409860461377946  1.0000
  O   O8        1.0  0.8390462349967585  0.6997590811198062  0.1144559128561222  1.0000
  O   O9        1.0  0.2790602209552565  0.3705027981940111  0.31037088995147655  1.0000
  O   O10       1.0  0.024892775141996934  0.8633630608924092  0.8075803882634017  1.0000
  O   O11       1.0  0.8196687216527451  0.11143279190317365  0.6978803440368692  1.0000
  O   O12       1.0  0.5251482156156649  0.6077677016333521  0.3041738789711927  1.0000
  O   O13       1.0  0.8077617580383846  0.8076687155847171  0.5413583803229499  1.0000
  O   O14       1.0  0.4297324124821818  0.773322443717451  0.8579707782869509  1.0000
  O   O15       1.0  0.7710322270861174  0.5280755403512511  0.6949592351805916  1.0000
  O   O16       1.0  0.8449129143351534  0.418689541192548  0.42286394696381596  1.0000
data_image7
_chemical_formula_structural       Sn4W4O16
_chemical_formula_sum              "Sn4 W4 O16"
_cell_length_a       7.620549
_cell_length_b       7.620549
_cell_length_c       7.620549
_cell_angle_alpha    90.0
_cell_angle_beta     90.0
_cell_angle_gamma    90.0

_space_group_name_H-M_alt    "P 1"
_space_group_IT_number       1

loop_
  _space_group_symop_operation_xyz
  'x, y, z'

loop_
  _atom_site_type_symbol
  _atom_site_label
  _atom_site_symmetry_multiplicity
  _atom_site_fract_x
  _atom_site_fract_y
  _atom_site_fract_z
  _atom_site_occupancy
  Sn  Sn1       1.0  0.7267573660855411  0.7994002889167298  0.8593371639436652  1.0000
  Sn  Sn2       1.0  0.747735340533952  0.17811844916462283  0.2277262989516047  1.0000
  Sn  Sn3       1.0  0.25554763981043377  0.6888401033302906  0.2889139157729805  1.0000
  Sn  Sn4       1.0  0.26555376950440024  0.3121811039091744  0.6393415570932957  1.0000
  W   W1        1.0  0.2740822976833721  0.25161719127857834  0.12501514551545853  1.0000
  W   W2        1.0  0.2524990200130305  0.8177643439299914  0.7193892549000535  1.0000
  W   W3        1.0  0.7145176688235801  0.30595877380591946  0.7855568027923343  1.0000
  W   W4        1.0  0.7596465309119476  0.6251266095437813  0.36322163155476367  1.0000
  O   O1        1.0  0.6906903879917565  0.3707538727345882  0.03709426871021473  1.0000
  O   O2        1.0  0.281997004722748  0.4026719481517458  0.9570990953746273  1.0000
  O   O3        1.0  0.14754511881675866  0.6172322976617695  0.6184464773945426  1.0000
  O   O4        1.0  0.4821926044194908  0.11085561978795822  0.16715801664190374  1.0000
  O   O5        1.0  0.5189054175335295  0.31663075527294876  0.6422939961121564  1.0000
  O   O6        1.0  0.07636974981403566  0.11325479789656454  0.0743704403668804  1.0000
  O   O7        1.0  0.26662276791302436  0.9663885519735866  0.5324828623336432  1.0000
  O   O8        1.0  0.8344245661191415  0.7192188479071822  0.11886053106624078  1.0000
  O   O9        1.0  0.2814507084576999  0.3593626094986258  0.3428162378500728  1.0000
  O   O10       1.0  0.11676642296922518  0.8956414818952392  0.8758976042141746  1.0000
  O   O11       1.0  0.8762304058771707  0.14336337510578148  0.7715427949217518  1.0000
  O   O12       1.0  0.5293500786420947  0.5647122875770534  0.3741520957767943  1.0000
  O   O13       1.0  0.7599514894853662  0.8450511964781969  0.4349656298784832  1.0000
  O   O14       1.0  0.4862558808003973  0.7852870476407319  0.7699727807991164  1.0000
  O   O15       1.0  0.8148844628319848  0.5199454225166118  0.7988617357630983  1.0000
  O   O16       1.0  0.8861137501519978  0.39056562577005344  0.41779105056731364  1.0000
data_image8
_chemical_formula_structural       Sn4W4O16
_chemical_formula_sum              "Sn4 W4 O16"
_cell_length_a       7.620549
_cell_length_b       7.620549
_cell_length_c       7.620549
_cell_angle_alpha    90.0
_cell_angle_beta     90.0
_cell_angle_gamma    90.0

_space_group_name_H-M_alt    "P 1"
_space_group_IT_number       1

loop_
  _space_group_symop_operation_xyz
  'x, y, z'

loop_
  _atom_site_type_symbol
  _atom_site_label
  _atom_site_symmetry_multiplicity
  _atom_site_fract_x
  _atom_site_fract_y
  _atom_site_fract_z
  _atom_site_occupancy
  Sn  Sn1       1.0  0.814874736070085  0.8312040646832971  0.890789450219676  1.0000
  Sn  Sn2       1.0  0.8018634412864927  0.15476129097212252  0.25320283471911936  1.0000
  Sn  Sn3       1.0  0.1872726056052895  0.7333502982878976  0.29885242518592287  1.0000
  Sn  Sn4       1.0  0.22720767006773185  0.3063667740775825  0.6885915914665902  1.0000
  W   W1        1.0  0.2718132536601466  0.2165089364325903  0.15672606306417217  1.0000
  W   W2        1.0  0.23616946302351494  0.8053302898709318  0.6671241746505121  1.0000
  W   W3        1.0  0.746024732834643  0.334778272770456  0.7871909932918186  1.0000
  W   W4        1.0  0.7306193750813738  0.6301816150091257  0.3287601082221648  1.0000
  O   O1        1.0  0.7180102878239447  0.2866153775477397  0.0220033752610528  1.0000
  O   O2        1.0  0.29690560512558845  0.3240677915099  0.9466518393102411  1.0000
  O   O3        1.0  0.279328016048602  0.5719604692658512  0.5976948774799132  1.0000
  O   O4        1.0  0.40081248913236783  0.03617656724422247  0.22096680071788563  1.0000
  O   O5        1.0  0.5250384649649683  0.31104286744946463  0.6900530759824874  1.0000
  O   O6        1.0  0.039787586235426664  0.1395173468189193  0.12416212165194161  1.0000
  O   O7        1.0  0.21791381475994853  0.9539661258391213  0.4649574950095336  1.0000
  O   O8        1.0  0.7193336344478546  0.6419680764814917  0.09447052602236168  1.0000
  O   O9        1.0  0.3201127986387842  0.399964714084166  0.3041331629142547  1.0000
  O   O10       1.0  0.06632309419772384  0.7714503963829155  0.8180798927950448  1.0000
  O   O11       1.0  0.884558544037328  0.15810705584934556  0.6862077515839301  1.0000
  O   O12       1.0  0.5488029450421533  0.7735358109534858  0.40053053769324276  1.0000
  O   O13       1.0  0.9586181917857561  0.7013337277206365  0.4147547554260903  1.0000
  O   O14       1.0  0.43055535185641397  0.8787819134043113  0.7765133301622267  1.0000
  O   O15       1.0  0.7826494468932049  0.5741497197461797  0.7701718889356025  1.0000
  O   O16       1.0  0.7896163909523239  0.3987344555438729  0.35510082149196426  1.0000
data_image9
_chemical_formula_structural       Sn4W4O16
_chemical_formula_sum              "Sn4 W4 O16"
_cell_length_a       7.620549
_cell_length_b       7.620549
_cell_length_c       7.620549
_cell_angle_alpha    90.0
_cell_angle_beta     90.0
_cell_angle_gamma    90.0

_space_group_name_H-M_alt    "P 1"
_space_group_IT_number       1

loop_
  _space_group_symop_operation_xyz
  'x, y, z'

loop_
  _atom_site_type_symbol
  _atom_site_label
  _atom_site_symmetry_multiplicity
  _atom_site_fract_x
  _atom_site_fract_y
  _atom_site_fract_z
  _atom_site_occupancy
  Sn  Sn1       1.0  0.8302371119874066  0.8880136782716029  0.9115895660771793  1.0000
  Sn  Sn2       1.0  0.7623372566527009  0.13849913764562016  0.2805309991024388  1.0000
  Sn  Sn3       1.0  0.21406269002767467  0.758015376346593  0.23557855251449816  1.0000
  Sn  Sn4       1.0  0.2838810402379528  0.2758602178452747  0.6731621444472  1.0000
  W   W1        1.0  0.29879141837665707  0.191010859769997  0.17149770886315988  1.0000
  W   W2        1.0  0.2655074682126036  0.8161416620439972  0.671958662559004  1.0000
  W   W3        1.0  0.7151676458052535  0.326681392378176  0.7855957893421993  1.0000
  W   W4        1.0  0.6965790185744315  0.6539221534835596  0.33404181098467756  1.0000
  O   O1        1.0  0.681593996714315  0.2556877415181399  0.011393351003181113  1.0000
  O   O2        1.0  0.33393628165559985  0.29949863635262636  0.9558958028184483  1.0000
  O   O3        1.0  0.31829935841386503  0.5603036440956599  0.7071565821045022  1.0000
  O   O4        1.0  0.3506153887620084  0.9611143127772189  0.10715489497364383  1.0000
  O   O5        1.0  0.5435259291962434  0.23116520658842585  0.6663122996101591  1.0000
  O   O6        1.0  0.0540399848450146  0.214775586255491  0.17570397521019293  1.0000
  O   O7        1.0  0.147545909136033  0.8682844097915675  0.4525480122416803  1.0000
  O   O8        1.0  0.6155310949794264  0.6728786612626456  0.12142281936639109  1.0000
  O   O9        1.0  0.3098636347398823  0.2827274062949732  0.3990216680109208  1.0000
  O   O10       1.0  0.10275410041955167  0.8438859516175684  0.850362872757428  1.0000
  O   O11       1.0  0.8766282146595358  0.15527809255054567  0.7315791536955548  1.0000
  O   O12       1.0  0.46605967559288064  0.6923429660548429  0.4203593257141958  1.0000
  O   O13       1.0  0.9414825104047704  0.6896592342372256  0.24551637833400647  1.0000
  O   O14       1.0  0.43649612027738505  0.9556440882706859  0.7519121267997809  1.0000
  O   O15       1.0  0.7520764586420091  0.5506193501410357  0.7211801601813126  1.0000
  O   O16       1.0  0.7009148140434108  0.4210300968385054  0.3210193599156411  1.0000
data_image10
_chemical_formula_structural       Sn4W4O16
_chemical_formula_sum              "Sn4 W4 O16"
_cell_length_a       7.620549
_cell_length_b       7.620549
_cell_length_c       7.620549
_cell_angle_alpha    90.0
_cell_angle_beta     90.0
_cell_angle_gamma    90.0

_space_group_name_H-M_alt    "P 1"
_space_group_IT_number       1

loop_
  _space_group_symop_operation_xyz
  'x, y, z'

loop_
  _atom_site_type_symbol
  _atom_site_label
  _atom_site_symmetry_multiplicity
  _atom_site_fract_x
  _atom_site_fract_y
  _atom_site_fract_z
  _atom_site_occupancy
  Sn  Sn1       1.0  0.8571688248786274  0.9330230364534119  0.8935418840975097  1.0000
  Sn  Sn2       1.0  0.7088739135372739  0.1401169035098796  0.2862226100649741  1.0000
  Sn  Sn3       1.0  0.28104639690649014  0.7150154474499782  0.2516633290643283  1.0000
  Sn  Sn4       1.0  0.2645724358388742  0.28469030524515127  0.6480413049508922  1.0000
  W   W1        1.0  0.23167657216606002  0.18222871143714856  0.16000476137200126  1.0000
  W   W2        1.0  0.3180391317139619  0.8001375138861164  0.7020512507261905  1.0000
  W   W3        1.0  0.7400053772049109  0.33244103756533266  0.790963896737001  1.0000
  W   W4        1.0  0.6745589077325115  0.6512075933185595  0.3048896917428482  1.0000
  O   O1        1.0  0.6886664442327632  0.2169035471133101  0.0017105037369078023  1.0000
  O   O2        1.0  0.19766067123252373  0.37817116125556094  0.06014142575986625  1.0000
  O   O3        1.0  0.2845195371665828  0.5614660345866236  0.7330586425384705  1.0000
  O   O4        1.0  0.343457934902759  0.9959345020279083  0.05700711307074711  1.0000
  O   O5        1.0  0.5359515866885528  0.36166573103849803  0.6687667022966487  1.0000
  O   O6        1.0  0.9971774345784148  0.11098728204210075  0.19027375446830444  1.0000
  O   O7        1.0  0.19429206170416127  0.8374170057569011  0.5111761672682283  1.0000
  O   O8        1.0  0.5103935766196909  0.7472918945211126  0.1524821685881369  1.0000
  O   O9        1.0  0.34626003504337194  0.22422692172516653  0.3723425253912357  1.0000
  O   O10       1.0  0.13732281756394116  0.8497568964489561  0.8842012722475792  1.0000
  O   O11       1.0  0.8809212475685838  0.1308035203937422  0.7133540028557834  1.0000
  O   O12       1.0  0.5963492078562869  0.6426500690310498  0.5133434695943653  1.0000
  O   O13       1.0  0.8705340345598278  0.817505909456665  0.2873327534220408  1.0000
  O   O14       1.0  0.43177169035254426  0.9952643892841999  0.752643154795877  1.0000
  O   O15       1.0  0.8753405382075973  0.5163494671622326  0.7200893644157299  1.0000
  O   O16       1.0  0.7375358911597057  0.4326861277262928  0.23829646449938113  1.0000
data_image11
_chemical_formula_structural       Sn4W4O16
_chemical_formula_sum              "Sn4 W4 O16"
_cell_length_a       7.620549
_cell_length_b       7.620549
_cell_length_c       7.620549
_cell_angle_alpha    90.0
_cell_angle_beta     90.0
_cell_angle_gamma    90.0

_space_group_name_H-M_alt    "P 1"
_space_group_IT_number       1

loop_
  _space_group_symop_operation_xyz
  'x, y, z'

loop_
  _atom_site_type_symbol
  _atom_site_label
  _atom_site_symmetry_multiplicity
  _atom_site_fract_x
  _atom_site_fract_y
  _atom_site_fract_z
  _atom_site_occupancy
  Sn  Sn1       1.0  0.8659304191876122  0.820429329959661  0.8776371313330731  1.0000
  Sn  Sn2       1.0  0.738478257544233  0.09120094927992262  0.24275955734390806  1.0000
  Sn  Sn3       1.0  0.25302922179423426  0.7012200143079209  0.2319708203204263  1.0000
  Sn  Sn4       1.0  0.2766272226791068  0.3071523781749713  0.6539727593192414  1.0000
  W   W1        1.0  0.19970686034210972  0.2284586515970508  0.16002263454162166  1.0000
  W   W2        1.0  0.3145609552712446  0.7776899921400198  0.6971244589382259  1.0000
  W   W3        1.0  0.7406021710757996  0.3684499126295264  0.8011779364743893  1.0000
  W   W4        1.0  0.6919348993021047  0.6695629853624718  0.3332034366969161  1.0000
  O   O1        1.0  0.685995905981394  0.23847771791719283  0.9753158790198962  1.0000
  O   O2        1.0  0.20740344716762385  0.41282306332321633  0.015332647970790036  1.0000
  O   O3        1.0  0.3412626047876893  0.5658133516409909  0.7786784703000871  1.0000
  O   O4        1.0  0.3260715412858172  0.019773030444241613  0.14505499782609155  1.0000
  O   O5        1.0  0.5737240154288656  0.33067967875915544  0.6442047476101082  1.0000
  O   O6        1.0  0.9592638826432416  0.15570020530424075  0.12741059555373202  1.0000
  O   O7        1.0  0.19414291979854828  0.8047878621434139  0.49247655687770026  1.0000
  O   O8        1.0  0.5743287093133953  0.6293123155545407  0.11995056128807562  1.0000
  O   O9        1.0  0.23784474833422992  0.31656594819877387  0.3776342085914619  1.0000
  O   O10       1.0  0.1619054511472043  0.9105738298917017  0.8370808724253445  1.0000
  O   O11       1.0  0.9347642299379193  0.28543716907220185  0.716392012774765  1.0000
  O   O12       1.0  0.455237545750991  0.6311708592526204  0.4336892433107344  1.0000
  O   O13       1.0  0.8833680196645786  0.8386969070783256  0.3838164082964899  1.0000
  O   O14       1.0  0.5158878124574302  0.8889614469213429  0.7267596102125998  1.0000
  O   O15       1.0  0.8026410582022664  0.57622968934543  0.8960483495291789  1.0000
  O   O16       1.0  0.8087084621832996  0.45383377349182497  0.35094496415364324  1.0000
data_image12
_chemical_formula_structural       Sn4W4O16
_chemical_formula_sum              "Sn4 W4 O16"
_cell_length_a       7.620549
_cell_length_b       7.620549
_cell_length_c       7.620549
_cell_angle_alpha    90.0
_cell_angle_beta     90.0
_cell_angle_gamma    90.0

_space_group_name_H-M_alt    "P 1"
_space_group_IT_number       1

loop_
  _space_group_symop_operation_xyz
  'x, y, z'

loop_
  _atom_site_type_symbol
  _atom_site_label
  _atom_site_symmetry_multiplicity
  _atom_site_fract_x
  _atom_site_fract_y
  _atom_site_fract_z
  _atom_site_occupancy
  Sn  Sn1       1.0  0.8655777998671785  0.8150705240123962  0.8595750300756025  1.0000
  Sn  Sn2       1.0  0.7867280055323069  0.08508526915140921  0.2344890238027167  1.0000
  Sn  Sn3       1.0  0.22808579620879893  0.783167146901487  0.18795385315711508  1.0000
  Sn  Sn4       1.0  0.2900992411321493  0.29304039426970324  0.6797168704097576  1.0000
  W   W1        1.0  0.2106007883220464  0.22055837690561791  0.1867410185853036  1.0000
  W   W2        1.0  0.31308148566432226  0.8221226719398325  0.7085628007097541  1.0000
  W   W3        1.0  0.7095331408097297  0.31292302933761357  0.8244735679077609  1.0000
  W   W4        1.0  0.6842767361669956  0.6323318365803243  0.30729449766281564  1.0000
  O   O1        1.0  0.6176261761524595  0.2301202121593476  0.03408896345332285  1.0000
  O   O2        1.0  0.22215687256182134  0.33603130559238503  0.96222535462345  1.0000
  O   O3        1.0  0.2715399439809377  0.6105015248951858  0.6053181811746685  1.0000
  O   O4        1.0  0.42783784775983097  0.1800900909887595  0.3121561356898935  1.0000
  O   O5        1.0  0.5905599230384092  0.39363227628519737  0.6337092783904523  1.0000
  O   O6        1.0  0.08192469932223667  0.010262534037374383  0.11751221616737213  1.0000
  O   O7        1.0  0.2269251063611133  0.9783210175068002  0.5379665031776897  1.0000
  O   O8        1.0  0.8000917075846083  0.8043009470651511  0.12611369742216608  1.0000
  O   O9        1.0  0.15893352462111257  0.4088132406842048  0.3169746952722937  1.0000
  O   O10       1.0  0.27015577013743414  0.8198974672301265  0.9322643546877862  1.0000
  O   O11       1.0  0.8378013294107409  0.134893399571661  0.7277631811760134  1.0000
  O   O12       1.0  0.44198433442857415  0.6737134344450542  0.2806637899453255  1.0000
  O   O13       1.0  0.7045586610154246  0.7617929842214334  0.5042607817473879  1.0000
  O   O14       1.0  0.5139747059797178  0.9440486141909931  0.7370608885236332  1.0000
  O   O15       1.0  0.797378348086152  0.5488250258581753  0.8730857575881579  1.0000
  O   O16       1.0  0.7834497684040246  0.4327666407447088  0.2430539205797435  1.0000
data_image13
_chemical_formula_structural       Sn4W4O16
_chemical_formula_sum              "Sn4 W4 O16"
_cell_length_a       7.620549
_cell_length_b       7.620549
_cell_length_c       7.620549
_cell_angle_alpha    90.0
_cell_angle_beta     90.0
_cell_angle_gamma    90.0

_space_group_name_H-M_alt    "P 1"
_space_group_IT_number       1

loop_
  _space_group_symop_operation_xyz
  'x, y, z'

loop_
  _atom_site_type_symbol
  _atom_site_label
  _atom_site_symmetry_multiplicity
  _atom_site_fract_x
  _atom_site_fract_y
  _atom_site_fract_z
  _atom_site_occupancy
  Sn  Sn1       1.0  0.793763969997383  0.8098571125703128  0.8015078468790334  1.0000
  Sn  Sn2       1.0  0.7300929217270026  0.08481445846234885  0.26200736234328503  1.0000
  Sn  Sn3       1.0  0.17972418656798755  0.766419916985436  0.21420856294569215  1.0000
  Sn  Sn4       1.0  0.2958217011715797  0.32212896040652345  0.6875929622538235  1.0000
  W   W1        1.0  0.21655289696436208  0.2315600129681892  0.19907621140102397  1.0000
  W   W2        1.0  0.3315061545594071  0.85140478644005  0.6786206718639102  1.0000
  W   W3        1.0  0.7301529278997394  0.281202815096308  0.8073864401642079  1.0000
  W   W4        1.0  0.7239021824125638  0.6414089270872686  0.346616664263568  1.0000
  O   O1        1.0  0.6105325748421352  0.15241354926292439  0.9710044814832541  1.0000
  O   O2        1.0  0.2870218914375949  0.27701431617955996  0.9600011436842505  1.0000
  O   O3        1.0  0.33389731203764894  0.6995376271203849  0.4881783047684872  1.0000
  O   O4        1.0  0.37177264026962054  0.09157728363618789  0.30811464242741105  1.0000
  O   O5        1.0  0.5762255554876888  0.2887028837083573  0.6066045038818699  1.0000
  O   O6        1.0  0.042873359626192986  0.052037718838435235  0.1656701850971314  1.0000
  O   O7        1.0  0.1927960519842138  0.060140923445728134  0.6122458402577553  1.0000
  O   O8        1.0  0.8927793019711286  0.7445400309261708  0.21413890057742827  1.0000
  O   O9        1.0  0.132596837391454  0.4219618275063992  0.30952321929634286  1.0000
  O   O10       1.0  0.22607719522654285  0.7847526242467177  0.8857830969339964  1.0000
  O   O11       1.0  0.9283820782188054  0.15774143548096742  0.7798014807604773  1.0000
  O   O12       1.0  0.5443919116075017  0.7737199378138555  0.22704198284030888  1.0000
  O   O13       1.0  0.7950648576274165  0.7117645545468829  0.5532371385167878  1.0000
  O   O14       1.0  0.5510120761426902  0.8651000132542518  0.6686247740363412  1.0000
  O   O15       1.0  0.7957158140914322  0.512361495904395  0.8717502353388052  1.0000
  O   O16       1.0  0.7510106218471808  0.4151567176271354  0.23631313073041824  1.0000
data_image14
_chemical_formula_structural       Sn4W4O16
_chemical_formula_sum              "Sn4 W4 O16"
_cell_length_a       7.620549
_cell_length_b       7.620549
_cell_length_c       7.620549
_cell_angle_alpha    90.0
_cell_angle_beta     90.0
_cell_angle_gamma    90.0

_space_group_name_H-M_alt    "P 1"
_space_group_IT_number       1

loop_
  _space_group_symop_operation_xyz
  'x, y, z'

loop_
  _atom_site_type_symbol
  _atom_site_label
  _atom_site_symmetry_multiplicity
  _atom_site_fract_x
  _atom_site_fract_y
  _atom_site_fract_z
  _atom_site_occupancy
  Sn  Sn1       1.0  0.7448668326614372  0.7786051538551061  0.8055022582221707  1.0000
  Sn  Sn2       1.0  0.6724656511777025  0.14255926022090115  0.30705026320994167  1.0000
  Sn  Sn3       1.0  0.20765470956032997  0.6856186956713567  0.19388570299245395  1.0000
  Sn  Sn4       1.0  0.3077771507773595  0.34552519009256794  0.698889991612071  1.0000
  W   W1        1.0  0.21201432760596864  0.22098514489791585  0.18783131725176686  1.0000
  W   W2        1.0  0.3033037279866812  0.8644976279109547  0.6545456024055001  1.0000
  W   W3        1.0  0.7477728359446262  0.2682188693476031  0.7981645558023465  1.0000
  W   W4        1.0  0.77486552115466  0.668748740435473  0.3488015376267866  1.0000
  O   O1        1.0  0.7157754542436312  0.18301227874738993  0.03373892519269424  1.0000
  O   O2        1.0  0.30498273272029314  0.25211264155123764  0.9475029246567153  1.0000
  O   O3        1.0  0.1779002526148593  0.7652835629715086  0.45948413760429707  1.0000
  O   O4        1.0  0.37717202815959294  0.08619169864614262  0.31548710266288754  1.0000
  O   O5        1.0  0.532289189223823  0.19070695208853053  0.6619762382239196  1.0000
  O   O6        1.0  0.9760991632375808  0.1950770138306833  0.21979099400732463  1.0000
  O   O7        1.0  0.25744452788078453  0.09493180964927016  0.5944882268583972  1.0000
  O   O8        1.0  0.9255886575999839  0.8003515085256045  0.20221791374257442  1.0000
  O   O9        1.0  0.13648612084859926  0.41258286037361885  0.34755804070655794  1.0000
  O   O10       1.0  0.21590799574131292  0.7630769463600283  0.8803429517576978  1.0000
  O   O11       1.0  0.9264810768574263  0.1652877641388177  0.6962138935918579  1.0000
  O   O12       1.0  0.5693118100119777  0.7573909068829363  0.304781495172489  1.0000
  O   O13       1.0  0.86743661051868  0.6882166643206147  0.5575051952874477  1.0000
  O   O14       1.0  0.519170183700985  0.7456407649039495  0.6571688763143255  1.0000
  O   O15       1.0  0.8397953531437987  0.4914989659825299  0.8631222898753923  1.0000
  O   O16       1.0  0.758982602667656  0.4477101218008201  0.3134045803323317  1.0000
data_image15
_chemical_formula_structural       Sn4W4O16
_chemical_formula_sum              "Sn4 W4 O16"
_cell_length_a       7.620549
_cell_length_b       7.620549
_cell_length_c       7.620549
_cell_angle_alpha    90.0
_cell_angle_beta     90.0
_cell_angle_gamma    90.0

_space_group_name_H-M_alt    "P 1"
_space_group_IT_number       1

loop_
  _space_group_symop_operation_xyz
  'x, y, z'

loop_
  _atom_site_type_symbol
  _atom_site_label
  _atom_site_symmetry_multiplicity
  _atom_site_fract_x
  _atom_site_fract_y
  _atom_site_fract_z
  _atom_site_occupancy
  Sn  Sn1       1.0  0.7915776190809386  0.7186791941704151  0.8597135750585684  1.0000
  Sn  Sn2       1.0  0.7963556729791038  0.20672649563890635  0.3185930875633401  1.0000
  Sn  Sn3       1.0  0.19804837944186024  0.74576290108766  0.12764128041797562  1.0000
  Sn  Sn4       1.0  0.2484240124027823  0.3573935343143362  0.686941427764365  1.0000
  W   W1        1.0  0.20441113336064265  0.19619414031762872  0.18793236650440384  1.0000
  W   W2        1.0  0.2626928232867897  0.850102902522908  0.6699712402350088  1.0000
  W   W3        1.0  0.7437259808571188  0.24531741248103492  0.8090537088697877  1.0000
  W   W4        1.0  0.7698852956034041  0.6813542015354469  0.33806589133886494  1.0000
  O   O1        1.0  0.6800459815326496  0.07397141749391388  0.9489829781671816  1.0000
  O   O2        1.0  0.31650995669216886  0.2865919366464991  0.9965004122868915  1.0000
  O   O3        1.0  0.1789260569335215  0.7475425972369063  0.48121346553562866  1.0000
  O   O4        1.0  0.301647649909109  0.9995383816016924  0.2274931257061183  1.0000
  O   O5        1.0  0.5633998584396623  0.34910764047798726  0.6931223367257486  1.0000
  O   O6        1.0  0.9747700644011802  0.24417308827721684  0.09778468125576355  1.0000
  O   O7        1.0  0.34533745860387255  0.06017329987178507  0.6336605777722658  1.0000
  O   O8        1.0  0.8975764494320204  0.7432762242709372  0.14103527672800173  1.0000
  O   O9        1.0  0.25873472157575617  0.3464558905321066  0.37398425550178627  1.0000
  O   O10       1.0  0.08903489466866678  0.8032770047543877  0.8495093338077173  1.0000
  O   O11       1.0  0.91147747754613  0.16674618649848139  0.6542180981811776  1.0000
  O   O12       1.0  0.6013944415479646  0.8619643555674139  0.35373964100566035  1.0000
  O   O13       1.0  0.8660904925477362  0.7092943377805985  0.5682266829561656  1.0000
  O   O14       1.0  0.4713590885539114  0.7685432350017968  0.7421295557032215  1.0000
  O   O15       1.0  0.8461291522352435  0.4378668040579237  0.9619373527763685  1.0000
  O   O16       1.0  0.697186866992917  0.4657552919515428  0.275646526239251  1.0000
data_image16
_chemical_formula_structural       Sn4W4O16
_chemical_formula_sum              "Sn4 W4 O16"
_cell_length_a       7.620549
_cell_length_b       7.620549
_cell_length_c       7.620549
_cell_angle_alpha    90.0
_cell_angle_beta     90.0
_cell_angle_gamma    90.0

_space_group_name_H-M_alt    "P 1"
_space_group_IT_number       1

loop_
  _space_group_symop_operation_xyz
  'x, y, z'

loop_
  _atom_site_type_symbol
  _atom_site_label
  _atom_site_symmetry_multiplicity
  _atom_site_fract_x
  _atom_site_fract_y
  _atom_site_fract_z
  _atom_site_occupancy
  Sn  Sn1       1.0  0.8038162171976208  0.758860935710538  0.8548787204543843  1.0000
  Sn  Sn2       1.0  0.7835924834376884  0.2376561016368013  0.3125376941973389  1.0000
  Sn  Sn3       1.0  0.21623807837710582  0.7275260164827962  0.1118759065727347  1.0000
  Sn  Sn4       1.0  0.21046282698928892  0.33779745757935437  0.6674686212461908  1.0000
  W   W1        1.0  0.25131802674241643  0.1805366185173043  0.19480860168584796  1.0000
  W   W2        1.0  0.2511640599870828  0.8233807590138996  0.6871131856076813  1.0000
  W   W3        1.0  0.7534383482777385  0.279130827730558  0.7668034673771399  1.0000
  W   W4        1.0  0.7169529806175969  0.7017297148220413  0.37355269406917174  1.0000
  O   O1        1.0  0.8181259379496295  0.038282603853693316  0.8271719954912747  1.0000
  O   O2        1.0  0.40617944221814906  0.19611712543373  0.029594785650302935  1.0000
  O   O3        1.0  0.15019582658049346  0.6368277306443002  0.5556672004502926  1.0000
  O   O4        1.0  0.3027626803551159  0.9646891257219832  0.252161135239577  1.0000
  O   O5        1.0  0.5540778700162611  0.3176132861846091  0.6324113723685634  1.0000
  O   O6        1.0  0.008908572352487987  0.14779432070457968  0.15221368717180703  1.0000
  O   O7        1.0  0.22578036310382  0.05954840886705712  0.683861319130527  1.0000
  O   O8        1.0  0.9147292641129823  0.749048556491514  0.24142101922989953  1.0000
  O   O9        1.0  0.3105885245706151  0.3072553638881523  0.40382044832267816  1.0000
  O   O10       1.0  0.11511475188505185  0.8001212498955527  0.8928309525495437  1.0000
  O   O11       1.0  0.9069074879735226  0.22170455330248307  0.5839091123082409  1.0000
  O   O12       1.0  0.5778705987109545  0.9072278674825225  0.3765669016219571  1.0000
  O   O13       1.0  0.8019830918377341  0.677164961582973  0.5910865628590826  1.0000
  O   O14       1.0  0.4857353069946462  0.7670599400487059  0.7668117097235786  1.0000
  O   O15       1.0  0.8849288477523691  0.4159611284656936  0.9056065756763684  1.0000
  O   O16       1.0  0.7866106048927234  0.48877181014925125  0.24555496570409774  1.0000
data_image17
_chemical_formula_structural       Sn4W4O16
_chemical_formula_sum              "Sn4 W4 O16"
_cell_length_a       7.620549
_cell_length_b       7.620549
_cell_length_c       7.620549
_cell_angle_alpha    90.0
_cell_angle_beta     90.0
_cell_angle_gamma    90.0

_space_group_name_H-M_alt    "P 1"
_space_group_IT_number       1

loop_
  _space_group_symop_operation_xyz
  'x, y, z'

loop_
  _atom_site_type_symbol
  _atom_site_label
  _atom_site_symmetry_multiplicity
  _atom_site_fract_x
  _atom_site_fract_y
  _atom_site_fract_z
  _atom_site_occupancy
  Sn  Sn1       1.0  0.7954356963234237  0.7979544180864397  0.8708242618538827  1.0000
  Sn  Sn2       1.0  0.7803704771793957  0.16147578183263797  0.2920621986154968  1.0000
  Sn  Sn3       1.0  0.1982354361719683  0.6692985073171793  0.1874696369927552  1.0000
  Sn  Sn4       1.0  0.2088655272016054  0.27782924456171637  0.6250791302294484  1.0000
  W   W1        1.0  0.25600990850568184  0.1787513819427638  0.22289669529198375  1.0000
  W   W2        1.0  0.2451002596731455  0.8295186598830007  0.7093976333610068  1.0000
  W   W3        1.0  0.7706546893355924  0.3137277049036641  0.6993126579837712  1.0000
  W   W4        1.0  0.7459032696973144  0.728871570741244  0.38787096067196863  1.0000
  O   O1        1.0  0.7984344581546344  0.09495865095326766  0.7931400322363107  1.0000
  O   O2        1.0  0.27845671830504093  0.28330058833969524  0.01536604396165453  1.0000
  O   O3        1.0  0.2806332784198755  0.6712034732674813  0.5576469952216951  1.0000
  O   O4        1.0  0.31346899199151707  0.946004264926895  0.1898129880143767  1.0000
  O   O5        1.0  0.571823728209737  0.25026784933864393  0.5896647821527428  1.0000
  O   O6        1.0  0.018926142899274856  0.15339865499944746  0.16920507267826895  1.0000
  O   O7        1.0  0.1316361617086998  0.999523776966805  0.5738760611474436  1.0000
  O   O8        1.0  0.9349029909841912  0.7902940599356311  0.21931774462529913  1.0000
  O   O9        1.0  0.31351615117117554  0.34630783411661825  0.4010010934270782  1.0000
  O   O10       1.0  0.09645040520493031  0.7564316488972088  0.8973770100251738  1.0000
  O   O11       1.0  0.928699593083151  0.3464890395315402  0.5411034722146277  1.0000
  O   O12       1.0  0.5815836902346524  0.8955023138678848  0.38209257576516925  1.0000
  O   O13       1.0  0.8275724915911337  0.6907291608429302  0.6308504885786771  1.0000
  O   O14       1.0  0.4599976579476963  0.8633051740049102  0.8027079148728163  1.0000
  O   O15       1.0  0.7764610989773908  0.4571961910081257  0.9234329035013423  1.0000
  O   O16       1.0  0.6483086989385428  0.5426958747517121  0.2744972338286619  1.0000
data_image18
_chemical_formula_structural       Sn4W4O16
_chemical_formula_sum              "Sn4 W4 O16"
_cell_length_a       7.620549
_cell_length_b       7.620549
_cell_length_c       7.620549
_cell_angle_alpha    90.0
_cell_angle_beta     90.0
_cell_angle_gamma    90.0

_space_group_name_H-M_alt    "P 1"
_space_group_IT_number       1

loop_
  _space_group_symop_operation_xyz
  'x, y, z'

loop_
  _atom_site_type_symbol
  _atom_site_label
  _atom_site_symmetry_multiplicity
  _atom_site_fract_x
  _atom_site_fract_y
  _atom_site_fract_z
  _atom_site_occupancy
  Sn  Sn1       1.0  0.7584991887376329  0.8494844052201627  0.9080132560566788  1.0000
  Sn  Sn2       1.0  0.7613527620607523  0.1897073902228786  0.32829834274888753  1.0000
  Sn  Sn3       1.0  0.18653858042714294  0.6438106808812282  0.13994347111380853  1.0000
  Sn  Sn4       1.0  0.235839687835946  0.2645211811360492  0.6584173532215521  1.0000
  W   W1        1.0  0.2657696000783426  0.15365535721261772  0.15291520061473504  1.0000
  W   W2        1.0  0.23041211465695816  0.8247727594845772  0.7207776272325748  1.0000
  W   W3        1.0  0.7649774573632858  0.3352734980145472  0.7300074722286046  1.0000
  W   W4        1.0  0.7572184401188979  0.7173410403198431  0.3905647003647521  1.0000
  O   O1        1.0  0.9039205027611  0.1835319886339863  0.8576773853263084  1.0000
  O   O2        1.0  0.14310068109557067  0.3230462190325589  0.008679115499685919  1.0000
  O   O3        1.0  0.24268192487801749  0.6084941087430976  0.611499416906762  1.0000
  O   O4        1.0  0.3823751807407459  0.9404315050407218  0.11011637755089294  1.0000
  O   O5        1.0  0.6547847645399676  0.17623977516449232  0.5878501937100176  1.0000
  O   O6        1.0  0.0634508311395301  0.07400934675530864  0.2410628671002713  1.0000
  O   O7        1.0  0.18568910085489768  0.9977550593573418  0.5555011998180783  1.0000
  O   O8        1.0  0.8961060260659784  0.7412664663508433  0.14899645568940384  1.0000
  O   O9        1.0  0.3765231889940006  0.2614161755366016  0.33394826532471905  1.0000
  O   O10       1.0  0.09036514093606524  0.8033182255715051  0.9304278502621477  1.0000
  O   O11       1.0  0.9417976038726309  0.3823576417146008  0.5901894424960359  1.0000
  O   O12       1.0  0.6316198656383769  0.8969951791978371  0.3698201014670934  1.0000
  O   O13       1.0  0.8617511545881386  0.7513109588086804  0.5956699744256644  1.0000
  O   O14       1.0  0.471082056754969  0.8369079757873618  0.7341903037315423  1.0000
  O   O15       1.0  0.687401845462511  0.5487379975203512  0.8343400887311473  1.0000
  O   O16       1.0  0.71036469736076  0.48831916493361094  0.30642366767630347  1.0000
data_image19
_chemical_formula_structural       Sn4W4O16
_chemical_formula_sum              "Sn4 W4 O16"
_cell_length_a       7.620549
_cell_length_b       7.620549
_cell_length_c       7.620549
_cell_angle_alpha    90.0
_cell_angle_beta     90.0
_cell_angle_gamma    90.0

_space_group_name_H-M_alt    "P 1"
_space_group_IT_number       1

loop_
  _space_group_symop_operation_xyz
  'x, y, z'

loop_
  _atom_site_type_symbol
  _atom_site_label
  _atom_site_symmetry_multiplicity
  _atom_site_fract_x
  _atom_site_fract_y
  _atom_site_fract_z
  _atom_site_occupancy
  Sn  Sn1       1.0  0.7009028460394064  0.8807873654263355  0.9050969349996951  1.0000
  Sn  Sn2       1.0  0.7046005716795601  0.25801140168816517  0.3247424134544623  1.0000
  Sn  Sn3       1.0  0.18874951402981732  0.6672407453649627  0.12606735473493227  1.0000
  Sn  Sn4       1.0  0.28266717227012284  0.24558961217799277  0.6264270053353747  1.0000
  W   W1        1.0  0.28075436176642815  0.17904903004574818  0.1630556372135755  1.0000
  W   W2        1.0  0.21181665889484977  0.7632319212409072  0.6762547127576889  1.0000
  W   W3        1.0  0.7897849505884033  0.34563401322476606  0.7563662081989744  1.0000
  W   W4        1.0  0.7656705418170271  0.6856650077014232  0.4052313422260288  1.0000
  O   O1        1.0  0.7670839991030199  0.1553176389489438  0.8914568906788316  1.0000
  O   O2        1.0  0.2289319179752064  0.42854519159700155  0.021010934875499654  1.0000
  O   O3        1.0  0.24639626448900387  0.598117832518271  0.5062962484437129  1.0000
  O   O4        1.0  0.44259547227942936  0.04865890330473377  0.09064212173586624  1.0000
  O   O5        1.0  0.6944889599932835  0.19066657631672362  0.5753589799789541  1.0000
  O   O6        1.0  0.06817531001388755  0.05207298215371086  0.21180086003985824  1.0000
  O   O7        1.0  0.1792094932514614  0.9849909623596342  0.5581452978932303  1.0000
  O   O8        1.0  0.9602275182566615  0.5620256413742668  0.29005821277769617  1.0000
  O   O9        1.0  0.4173272051477951  0.289709536518512  0.3461164075736467  1.0000
  O   O10       1.0  0.08980383519652961  0.6782677462027499  0.8693464891056459  1.0000
  O   O11       1.0  0.01709519144940219  0.3249958807119192  0.7118048432582911  1.0000
  O   O12       1.0  0.5887726843235213  0.7918167581786117  0.24954738129438045  1.0000
  O   O13       1.0  0.8328515745345928  0.8677463495308888  0.505222471253007  1.0000
  O   O14       1.0  0.42407627867471465  0.8410189474486801  0.761890340561888  1.0000
  O   O15       1.0  0.7131525220863456  0.5036688660476004  0.9275585147205173  1.0000
  O   O16       1.0  0.7047964354754739  0.5573123991306295  0.6003322638211457  1.0000
data_image20
_chemical_formula_structural       Sn4W4O16
_chemical_formula_sum              "Sn4 W4 O16"
_cell_length_a       7.620549
_cell_length_b       7.620549
_cell_length_c       7.620549
_cell_angle_alpha    90.0
_cell_angle_beta     90.0
_cell_angle_gamma    90.0

_space_group_name_H-M_alt    "P 1"
_space_group_IT_number       1

loop_
  _space_group_symop_operation_xyz
  'x, y, z'

loop_
  _atom_site_type_symbol
  _atom_site_label
  _atom_site_symmetry_multiplicity
  _atom_site_fract_x
  _atom_site_fract_y
  _atom_site_fract_z
  _atom_site_occupancy
  Sn  Sn1       1.0  0.64697212012962  0.8748216093023081  0.8769723260207386  1.0000
  Sn  Sn2       1.0  0.7387222574490281  0.3133508008957538  0.3111830756771399  1.0000
  Sn  Sn3       1.0  0.21063765852311622  0.6858350115883739  0.1635142459515089  1.0000
  Sn  Sn4       1.0  0.28017028611592715  0.2415206335456521  0.6440243460051992  1.0000
  W   W1        1.0  0.2608053083464235  0.20418968578733865  0.14723092080540934  1.0000
  W   W2        1.0  0.22076776207925805  0.7317389899754246  0.6458317025783171  1.0000
  W   W3        1.0  0.8115914259469668  0.29152730804655996  0.8317911203994195  1.0000
  W   W4        1.0  0.756101571849501  0.7126909836794061  0.36909666523433526  1.0000
  O   O1        1.0  0.7821573329422492  0.16014773388418896  0.050192928526116995  1.0000
  O   O2        1.0  0.27931242391852545  0.4390313597379833  0.041586601759357356  1.0000
  O   O3        1.0  0.19047347843441675  0.5478167034836084  0.47469466390489823  1.0000
  O   O4        1.0  0.3871644390517589  0.05302905188471385  0.00582603429667018  1.0000
  O   O5        1.0  0.6294635649073981  0.2068621897507438  0.7276918181024791  1.0000
  O   O6        1.0  0.07843145983604649  0.13372967212430714  0.267450767315704  1.0000
  O   O7        1.0  0.3443545244084764  0.9534498335383941  0.5315956373772458  1.0000
  O   O8        1.0  0.9539226376970177  0.6473882118983472  0.2625159019439238  1.0000
  O   O9        1.0  0.39867512170990094  0.250235783374691  0.3373845203851759  1.0000
  O   O10       1.0  0.09913866811770317  0.7909255628566066  0.8268435997135244  1.0000
  O   O11       1.0  0.019038436002969616  0.24950738845929332  0.7268448508207782  1.0000
  O   O12       1.0  0.6156613878363337  0.7432812763031952  0.18865218804733996  1.0000
  O   O13       1.0  0.7798560742778458  0.9067517585845913  0.5184461567348321  1.0000
  O   O14       1.0  0.419534802844303  0.6930106552867568  0.7534385741365374  1.0000
  O   O15       1.0  0.7536082371332873  0.5010837868628142  0.9205184362701265  1.0000
  O   O16       1.0  0.6380222317631754  0.5082244439195452  0.4710255865281254  1.0000
data_image21
_chemical_formula_structural       Sn4W4O16
_chemical_formula_sum              "Sn4 W4 O16"
_cell_length_a       7.620549
_cell_length_b       7.620549
_cell_length_c       7.620549
_cell_angle_alpha    90.0
_cell_angle_beta     90.0
_cell_angle_gamma    90.0

_space_group_name_H-M_alt    "P 1"
_space_group_IT_number       1

loop_
  _space_group_symop_operation_xyz
  'x, y, z'

loop_
  _atom_site_type_symbol
  _atom_site_label
  _atom_site_symmetry_multiplicity
  _atom_site_fract_x
  _atom_site_fract_y
  _atom_site_fract_z
  _atom_site_occupancy
  Sn  Sn1       1.0  0.6991493824104265  0.8272730772292222  0.8421264640875307  1.0000
  Sn  Sn2       1.0  0.7469929991292706  0.2708907114599542  0.266473964831251  1.0000
  Sn  Sn3       1.0  0.19852809850674397  0.6982942973393215  0.1469677648243976  1.0000
  Sn  Sn4       1.0  0.3205919699128537  0.2285077434005407  0.5983968392311526  1.0000
  W   W1        1.0  0.22743823580969513  0.17735637429015078  0.16008964972919607  1.0000
  W   W2        1.0  0.23679524867810675  0.7545278625972286  0.6621133229457233  1.0000
  W   W3        1.0  0.8139586891503134  0.2785136667062187  0.8728145436459386  1.0000
  W   W4        1.0  0.7466952286265208  0.7585693258703926  0.3673624388606872  1.0000
  O   O1        1.0  0.881541184482436  0.09684770262365557  0.06915623512763061  1.0000
  O   O2        1.0  0.1668552797699145  0.4022969456077698  0.11135100451971636  1.0000
  O   O3        1.0  0.16189350606793068  0.5536916630174635  0.5245704698153391  1.0000
  O   O4        1.0  0.18127969805437122  0.05128850137344654  0.9401649970619288  1.0000
  O   O5        1.0  0.5995824242544522  0.3035662308849459  0.7768011776467555  1.0000
  O   O6        1.0  0.0813189300841981  0.1955442961680709  0.32619466620408527  1.0000
  O   O7        1.0  0.12012322611748633  0.9853033110884687  0.5982763043411229  1.0000
  O   O8        1.0  0.9704607609318172  0.7356453899746828  0.24515484481432243  1.0000
  O   O9        1.0  0.41682575817549194  0.24311735284652486  0.29585533666142594  1.0000
  O   O10       1.0  0.049427606888990776  0.7500410624072941  0.8239075691966288  1.0000
  O   O11       1.0  0.9834519972152976  0.20590142150430635  0.7345880140796696  1.0000
  O   O12       1.0  0.6053756438857015  0.8384567046399789  0.1934716499683599  1.0000
  O   O13       1.0  0.7864298714626071  0.9222467061664265  0.548640221574605  1.0000
  O   O14       1.0  0.4491193471191976  0.7573453731179938  0.7347802848505616  1.0000
  O   O15       1.0  0.8597669929306528  0.49584340376889136  0.9591497364923086  1.0000
  O   O16       1.0  0.6772189915776238  0.5841287449586163  0.49724561532588396  1.0000
data_image22
_chemical_formula_structural       Sn4W4O16
_chemical_formula_sum              "Sn4 W4 O16"
_cell_length_a       7.620549
_cell_length_b       7.620549
_cell_length_c       7.620549
_cell_angle_alpha    90.0
_cell_angle_beta     90.0
_cell_angle_gamma    90.0

_space_group_name_H-M_alt    "P 1"
_space_group_IT_number       1

loop_
  _space_group_symop_operation_xyz
  'x, y, z'

loop_
  _atom_site_type_symbol
  _atom_site_label
  _atom_site_symmetry_multiplicity
  _atom_site_fract_x
  _atom_site_fract_y
  _atom_site_fract_z
  _atom_site_occupancy
  Sn  Sn1       1.0  0.7161976640651707  0.8212929392511739  0.8501594409288976  1.0000
  Sn  Sn2       1.0  0.7850858902683061  0.30111656362826  0.300438138930541  1.0000
  Sn  Sn3       1.0  0.16873382352404342  0.6736579364873837  0.10080757267933793  1.0000
  Sn  Sn4       1.0  0.2695540702733156  0.2102502000027658  0.5709137436561877  1.0000
  W   W1        1.0  0.25085174305551555  0.18562158465412207  0.19128116988443042  1.0000
  W   W2        1.0  0.22427789640243556  0.7330882922404168  0.6604937354737248  1.0000
  W   W3        1.0  0.8145627087076105  0.3027156093859679  0.8650492939434261  1.0000
  W   W4        1.0  0.7349391174199831  0.7783638207976871  0.3825660889236304  1.0000
  O   O1        1.0  0.8449132853102317  0.0711265747340301  0.9405938135374805  1.0000
  O   O2        1.0  0.29154637947172424  0.40820897192903466  0.11704213300709299  1.0000
  O   O3        1.0  0.30202364313479835  0.5545842184458517  0.5195230457323949  1.0000
  O   O4        1.0  0.26529290747567297  0.060964821215503395  0.9900981842431944  1.0000
  O   O5        1.0  0.6526158986016701  0.24880203117956273  0.7093926701727572  1.0000
  O   O6        1.0  0.04870837814580642  0.24053329053752656  0.3049245931665373  1.0000
  O   O7        1.0  0.20679728122094126  0.9374698395056034  0.5144777620549142  1.0000
  O   O8        1.0  0.9600568526723294  0.7502663907995271  0.269621978136582  1.0000
  O   O9        1.0  0.42231880046369946  0.20969805653493273  0.34897318881603584  1.0000
  O   O10       1.0  0.02847170487242374  0.6668415764147537  0.7561226763934289  1.0000
  O   O11       1.0  0.9695724573752161  0.32742280965784365  0.6953279060653207  1.0000
  O   O12       1.0  0.6419748020808407  0.7650349348191865  0.15785977234022114  1.0000
  O   O13       1.0  0.677790354097671  0.9169130309298933  0.5681110097637891  1.0000
  O   O14       1.0  0.4015669899949165  0.7367767899912643  0.8020978090090229  1.0000
  O   O15       1.0  0.8065585079816565  0.4418020402200818  0.07138637639814727  1.0000
  O   O16       1.0  0.6698881992394156  0.556373455522797  0.4074181780431505  1.0000
data_image23
_chemical_formula_structural       Sn4W4O16
_chemical_formula_sum              "Sn4 W4 O16"
_cell_length_a       7.620549
_cell_length_b       7.620549
_cell_length_c       7.620549
_cell_angle_alpha    90.0
_cell_angle_beta     90.0
_cell_angle_gamma    90.0

_space_group_name_H-M_alt    "P 1"
_space_group_IT_number       1

loop_
  _space_group_symop_operation_xyz
  'x, y, z'

loop_
  _atom_site_type_symbol
  _atom_site_label
  _atom_site_symmetry_multiplicity
  _atom_site_fract_x
  _atom_site_fract_y
  _atom_site_fract_z
  _atom_site_occupancy
  Sn  Sn1       1.0  0.7258543981928295  0.873302564116411  0.8490392424193228  1.0000
  Sn  Sn2       1.0  0.7407638200420368  0.26506317131345253  0.3650502222749451  1.0000
  Sn  Sn3       1.0  0.18517581289103882  0.6611280490052047  0.10268749596263708  1.0000
  Sn  Sn4       1.0  0.2621483202144345  0.23282883767709817  0.6325292944688227  1.0000
  W   W1        1.0  0.3004550418488858  0.18566343515620762  0.1921638116130097  1.0000
  W   W2        1.0  0.23361289742979124  0.705911325590838  0.6570536901101209  1.0000
  W   W3        1.0  0.7744839639600575  0.311723119909001  0.8222200630881713  1.0000
  W   W4        1.0  0.7383954232368087  0.7892203033652446  0.35303154964970923  1.0000
  O   O1        1.0  0.8150178446826458  0.09420941385150453  0.9671330816150694  1.0000
  O   O2        1.0  0.30833290494531107  0.29950175834606496  0.985724792637768  1.0000
  O   O3        1.0  0.23403772851520144  0.508971941057591  0.5042390909811258  1.0000
  O   O4        1.0  0.27287474358191893  0.9672385132223869  0.11120845074133617  1.0000
  O   O5        1.0  0.5483523232088753  0.28270479454906544  0.6865585803139329  1.0000
  O   O6        1.0  0.13326097977553064  0.20111606699753784  0.3455448575998606  1.0000
  O   O7        1.0  0.3123334969042787  0.8949536211327814  0.5299416525047497  1.0000
  O   O8        1.0  0.9552138512750965  0.8547549836210666  0.2922469339239903  1.0000
  O   O9        1.0  0.5243125764402811  0.13631370367253895  0.27113635287908233  1.0000
  O   O10       1.0  0.005602600979801373  0.6940877233885214  0.7062799840966895  1.0000
  O   O11       1.0  0.9892338104584344  0.33601341614642094  0.7874678155470751  1.0000
  O   O12       1.0  0.6382743425597072  0.8484002485682487  0.14715529829515747  1.0000
  O   O13       1.0  0.6332028250320735  0.9331323814929926  0.5085962353345332  1.0000
  O   O14       1.0  0.3413309199647573  0.7217162427189362  0.8580774639302945  1.0000
  O   O15       1.0  0.7015428908116138  0.4885444975314353  0.9954494751900343  1.0000
  O   O16       1.0  0.6997700595316705  0.5482525731714264  0.3792524827735948  1.0000
data_image24
_chemical_formula_structural       Sn4W4O16
_chemical_formula_sum              "Sn4 W4 O16"
_cell_length_a       7.620549
_cell_length_b       7.620549
_cell_length_c       7.620549
_cell_angle_alpha    90.0
_cell_angle_beta     90.0
_cell_angle_gamma    90.0

_space_group_name_H-M_alt    "P 1"
_space_group_IT_number       1

loop_
  _space_group_symop_operation_xyz
  'x, y, z'

loop_
  _atom_site_type_symbol
  _atom_site_label
  _atom_site_symmetry_multiplicity
  _atom_site_fract_x
  _atom_site_fract_y
  _atom_site_fract_z
  _atom_site_occupancy
  Sn  Sn1       1.0  0.7394285435000993  0.8030459965801321  0.8175475773810726  1.0000
  Sn  Sn2       1.0  0.7422221268755304  0.2480723637461711  0.41468141451832186  1.0000
  Sn  Sn3       1.0  0.18817811128475959  0.6800832903868052  0.07033438329136295  1.0000
  Sn  Sn4       1.0  0.2683853376804875  0.27537973086493495  0.6238654439615277  1.0000
  W   W1        1.0  0.3006618801786158  0.17502449478468576  0.16683493094229182  1.0000
  W   W2        1.0  0.20011366775118605  0.7192500651515289  0.6445827028357254  1.0000
  W   W3        1.0  0.7869469011261317  0.3140693653702429  0.8371772348434875  1.0000
  W   W4        1.0  0.7527354179044887  0.7929713822834216  0.3605642883266254  1.0000
  O   O1        1.0  0.7505295062041278  0.08930284419000915  0.9426424146087471  1.0000
  O   O2        1.0  0.20349786779166076  0.26834184901153674  0.9732744247199999  1.0000
  O   O3        1.0  0.28277444897384446  0.5506625408633878  0.4865568324131617  1.0000
  O   O4        1.0  0.2315511598345038  0.9327650355529876  0.15374440450489302  1.0000
  O   O5        1.0  0.5918312710726075  0.30586241394716673  0.6901534401467986  1.0000
  O   O6        1.0  0.15689272729573323  0.17155983170721817  0.36888075202900555  1.0000
  O   O7        1.0  0.2974082543285641  0.9090228166789432  0.5666755086417746  1.0000
  O   O8        1.0  0.9572725866867273  0.6944902486233533  0.2985516717294128  1.0000
  O   O9        1.0  0.48238636129248796  0.23122104975133323  0.3042030068860675  1.0000
  O   O10       1.0  0.9894248174077848  0.8026492478060676  0.7691431141006119  1.0000
  O   O11       1.0  0.9511277769675606  0.2948994673378987  0.6684537888573175  1.0000
  O   O12       1.0  0.5829223779501468  0.8791402980801402  0.21285966446143673  1.0000
  O   O13       1.0  0.7352049340837391  0.9669941575703862  0.5406144737501588  1.0000
  O   O14       1.0  0.3314625431744568  0.6951441964670836  0.8523137311271686  1.0000
  O   O15       1.0  0.7608831847314641  0.4502628795876318  0.03194822151245447  1.0000
  O   O16       1.0  0.705608842111099  0.6272182720136292  0.5702210968038769  1.0000
data_image25
_chemical_formula_structural       Sn4W4O16
_chemical_formula_sum              "Sn4 W4 O16"
_cell_length_a       7.620549
_cell_length_b       7.620549
_cell_length_c       7.620549
_cell_angle_alpha    90.0
_cell_angle_beta     90.0
_cell_angle_gamma    90.0

_space_group_name_H-M_alt    "P 1"
_space_group_IT_number       1

loop_
  _space_group_symop_operation_xyz
  'x, y, z'

loop_
  _atom_site_type_symbol
  _atom_site_label
  _atom_site_symmetry_multiplicity
  _atom_site_fract_x
  _atom_site_fract_y
  _atom_site_fract_z
  _atom_site_occupancy
  Sn  Sn1       1.0  0.7317674501917438  0.7569452744111289  0.8784641896151274  1.0000
  Sn  Sn2       1.0  0.7862520519401957  0.3156553389897525  0.42004633604027525  1.0000
  Sn  Sn3       1.0  0.15313689095449748  0.6743929009538192  0.050135831832935844  1.0000
  Sn  Sn4       1.0  0.2441445661460606  0.27133418304392487  0.6083255793673219  1.0000
  W   W1        1.0  0.32128259379915364  0.18989067156585554  0.17474262786659409  1.0000
  W   W2        1.0  0.1980161090545782  0.7631420054983347  0.6409474299045609  1.0000
  W   W3        1.0  0.7780037679540361  0.262023542173843  0.8449792964408276  1.0000
  W   W4        1.0  0.744341971526865  0.765918347340024  0.3771337741828595  1.0000
  O   O1        1.0  0.8451390937436728  0.024915338616564  0.8417649852622011  1.0000
  O   O2        1.0  0.39693744288402505  0.29702039407623515  0.9891636162025325  1.0000
  O   O3        1.0  0.13268813202288351  0.6009851215287378  0.47714133680114346  1.0000
  O   O4        1.0  0.2328945727425761  0.9772692705065295  0.08473004224396327  1.0000
  O   O5        1.0  0.6177562285085477  0.34331303368615546  0.6706246392045199  1.0000
  O   O6        1.0  0.1356044624942936  0.311821475162132  0.2820949824106187  1.0000
  O   O7        1.0  0.19466100178330778  0.9703990833547255  0.5326106404949549  1.0000
  O   O8        1.0  0.934832768426791  0.7374077801668693  0.21291844744161584  1.0000
  O   O9        1.0  0.5196855530547362  0.18650820356963743  0.32183139032767977  1.0000
  O   O10       1.0  0.9737215255266413  0.7241033111278538  0.7847213887257686  1.0000
  O   O11       1.0  0.9793502227768534  0.32413634611024744  0.7676634866809564  1.0000
  O   O12       1.0  0.5845527946912639  0.8374601006941335  0.193346040944108  1.0000
  O   O13       1.0  0.8332717145676802  0.9580754938511824  0.49769547290960087  1.0000
  O   O14       1.0  0.42948618746650014  0.7100203126631304  0.7226790618425962  1.0000
  O   O15       1.0  0.7192365465409177  0.42191946731189195  0.013421717652766008  1.0000
  O   O16       1.0  0.6417643284129061  0.5918706479120749  0.4921337597773898  1.0000
data_image26
_chemical_formula_structural       Sn4W4O16
_chemical_formula_sum              "Sn4 W4 O16"
_cell_length_a       7.620549
_cell_length_b       7.620549
_cell_length_c       7.620549
_cell_angle_alpha    90.0
_cell_angle_beta     90.0
_cell_angle_gamma    90.0

_space_group_name_H-M_alt    "P 1"
_space_group_IT_number       1

loop_
  _space_group_symop_operation_xyz
  'x, y, z'

loop_
  _atom_site_type_symbol
  _atom_site_label
  _atom_site_symmetry_multiplicity
  _atom_site_fract_x
  _atom_site_fract_y
  _atom_site_fract_z
  _atom_site_occupancy
  Sn  Sn1       1.0  0.6930014672064253  0.7748795148576623  0.9406942802463983  1.0000
  Sn  Sn2       1.0  0.7878927029601175  0.3250598677268443  0.4288439951967206  1.0000
  Sn  Sn3       1.0  0.19624964411535378  0.7310497654947725  0.15380153361237453  1.0000
  Sn  Sn4       1.0  0.2350221984619646  0.2955029121561438  0.5648162754348794  1.0000
  W   W1        1.0  0.3504750518591271  0.1564458570316881  0.16041879496334624  1.0000
  W   W2        1.0  0.1920631396046507  0.7816171023180412  0.6449707116130923  1.0000
  W   W3        1.0  0.8070660379815214  0.24100803422686803  0.8191810578482663  1.0000
  W   W4        1.0  0.7083410371403892  0.7503980099677257  0.33218645604983027  1.0000
  O   O1        1.0  0.7808814715644389  0.0589935983152681  0.9600580313301725  1.0000
  O   O2        1.0  0.3135163698112587  0.22336357741055957  0.9546328469837961  1.0000
  O   O3        1.0  0.18205730688471397  0.5691653057056077  0.5404410319246952  1.0000
  O   O4        1.0  0.17133783773402336  0.9882477153806262  0.14556982884478992  1.0000
  O   O5        1.0  0.6300492154399632  0.25695300153297135  0.6512447183054635  1.0000
  O   O6        1.0  0.19402837112755966  0.3290082755638534  0.28712401033543783  1.0000
  O   O7        1.0  0.11402397285949124  0.9833726894015165  0.5098193283646176  1.0000
  O   O8        1.0  0.9076127722157716  0.6569524196947785  0.2388971123472784  1.0000
  O   O9        1.0  0.5838360111613881  0.2235667909566409  0.23217767416916701  1.0000
  O   O10       1.0  0.06083506872107812  0.7554011454689429  0.8579224070649031  1.0000
  O   O11       1.0  0.014377218135755543  0.2884428198104366  0.7544179324010697  1.0000
  O   O12       1.0  0.496592842735361  0.7926956410303303  0.13937359212045913  1.0000
  O   O13       1.0  0.8019303833453564  0.9119107007205701  0.48447581107310467  1.0000
  O   O14       1.0  0.39222205957612344  0.7587213741279865  0.7717804761376816  1.0000
  O   O15       1.0  0.7429044365455137  0.4366092712535673  0.9389484267440482  1.0000
  O   O16       1.0  0.6226401369512783  0.5356579087793644  0.38679861541768296  1.0000
data_image27
_chemical_formula_structural       Sn4W4O16
_chemical_formula_sum              "Sn4 W4 O16"
_cell_length_a       7.620549
_cell_length_b       7.620549
_cell_length_c       7.620549
_cell_angle_alpha    90.0
_cell_angle_beta     90.0
_cell_angle_gamma    90.0

_space_group_name_H-M_alt    "P 1"
_space_group_IT_number       1

loop_
  _space_group_symop_operation_xyz
  'x, y, z'

loop_
  _atom_site_type_symbol
  _atom_site_label
  _atom_site_symmetry_multiplicity
  _atom_site_fract_x
  _atom_site_fract_y
  _atom_site_fract_z
  _atom_site_occupancy
  Sn  Sn1       1.0  0.6511965145640034  0.8063491906804788  0.8621251998749312  1.0000
  Sn  Sn2       1.0  0.7573472414372651  0.26813977337923517  0.39209283330172495  1.0000
  Sn  Sn3       1.0  0.2069081170817321  0.651581767377872  0.2163774593023018  1.0000
  Sn  Sn4       1.0  0.27850790632981637  0.2804276516756186  0.6374809061165855  1.0000
  W   W1        1.0  0.3454678969414164  0.18425986136711467  0.1163024800579854  1.0000
  W   W2        1.0  0.17581208848079186  0.8003278173429971  0.6494659573982438  1.0000
  W   W3        1.0  0.8014553686893162  0.23264637194989202  0.8500468356147554  1.0000
  W   W4        1.0  0.7169750019104361  0.7641751487417177  0.3255831373319851  1.0000
  O   O1        1.0  0.8097979221063779  0.009747593193379131  0.953755800764109  1.0000
  O   O2        1.0  0.43701555667322095  0.17412268296120595  0.8847672399696976  1.0000
  O   O3        1.0  0.1678000122401256  0.5824242299974206  0.5540674454398092  1.0000
  O   O4        1.0  0.20985851748447043  0.01310553591194008  0.18239631927608965  1.0000
  O   O5        1.0  0.6640810783218101  0.2855350630379982  0.6534578479017035  1.0000
  O   O6        1.0  0.2281405362266513  0.4069506096288926  0.165301850484798  1.0000
  O   O7        1.0  0.15051276703463226  0.03188753537828586  0.5341649809493035  1.0000
  O   O8        1.0  0.9474208857917908  0.7238203394916066  0.24708798748693817  1.0000
  O   O9        1.0  0.5317122761149766  0.2574873004993631  0.25131541580491223  1.0000
  O   O10       1.0  0.036154752491117916  0.7414247113436649  0.8345963124311668  1.0000
  O   O11       1.0  0.035033084333305764  0.27143753194855064  0.7701895263495453  1.0000
  O   O12       1.0  0.617289804238253  0.8576983531087533  0.13426802404812443  1.0000
  O   O13       1.0  0.7310242294762352  0.9055115461458467  0.5192183822794351  1.0000
  O   O14       1.0  0.39886263904229724  0.8001121718751338  0.7780244695258492  1.0000
  O   O15       1.0  0.7644361066680833  0.4015938445167681  0.994482656036884  1.0000
  O   O16       1.0  0.623167854511559  0.5909898201701262  0.41907545882854247  1.0000
data_image28
_chemical_formula_structural       Sn4W4O16
_chemical_formula_sum              "Sn4 W4 O16"
_cell_length_a       7.620549
_cell_length_b       7.620549
_cell_length_c       7.620549
_cell_angle_alpha    90.0
_cell_angle_beta     90.0
_cell_angle_gamma    90.0

_space_group_name_H-M_alt    "P 1"
_space_group_IT_number       1

loop_
  _space_group_symop_operation_xyz
  'x, y, z'

loop_
  _atom_site_type_symbol
  _atom_site_label
  _atom_site_symmetry_multiplicity
  _atom_site_fract_x
  _atom_site_fract_y
  _atom_site_fract_z
  _atom_site_occupancy
  Sn  Sn1       1.0  0.6354920986401899  0.7730237009479906  0.8217980077986822  1.0000
  Sn  Sn2       1.0  0.7571793494336533  0.2773162412992298  0.38283004939703397  1.0000
  Sn  Sn3       1.0  0.22519390732153827  0.6224382141018804  0.23527757735777768  1.0000
  Sn  Sn4       1.0  0.25380018804532317  0.3036411370592137  0.6594629339425694  1.0000
  W   W1        1.0  0.32615154056935314  0.20827222362339023  0.07566540905847184  1.0000
  W   W2        1.0  0.19187586203138843  0.8218866292700667  0.6843893147933915  1.0000
  W   W3        1.0  0.7632847372011903  0.23364413856179253  0.8519701882937749  1.0000
  W   W4        1.0  0.7726849406744153  0.75142890983341  0.3439120877262544  1.0000
  O   O1        1.0  0.7648215545540509  0.9959521266052737  0.909295742401215  1.0000
  O   O2        1.0  0.4309650956349599  0.17166800984183964  0.8465675478818658  1.0000
  O   O3        1.0  0.18088090809533658  0.6257095450334375  0.5283556049330554  1.0000
  O   O4        1.0  0.2659700229910017  0.010430921444151808  0.13232618188685374  1.0000
  O   O5        1.0  0.690937009587504  0.3360174846339696  0.6433721544979517  1.0000
  O   O6        1.0  0.1441638609288045  0.3402454449501475  0.17201984988871372  1.0000
  O   O7        1.0  0.23728336617774243  0.005926201078850752  0.5471448547650086  1.0000
  O   O8        1.0  0.9482715791437871  0.7274677706080536  0.1755550234714154  1.0000
  O   O9        1.0  0.5104240982490442  0.26072378342538094  0.21614054429704216  1.0000
  O   O10       1.0  0.9910171118154764  0.8195583392872903  0.7810670502332101  1.0000
  O   O11       1.0  0.9920554231793329  0.24381490788232102  0.7723637788291626  1.0000
  O   O12       1.0  0.6027233083752961  0.8055107073454294  0.19255968265847748  1.0000
  O   O13       1.0  0.8059829984048776  0.8904996270607144  0.5279129520314711  1.0000
  O   O14       1.0  0.34233315511512685  0.7233542929054342  0.8507355541361882  1.0000
  O   O15       1.0  0.7684390285103371  0.38482694632743025  0.04030025188200037  1.0000
  O   O16       1.0  0.6799113323227162  0.5517236762674212  0.44098742672493657  1.0000
data_image29
_chemical_formula_structural       Sn4W4O16
_chemical_formula_sum              "Sn4 W4 O16"
_cell_length_a       7.620549
_cell_length_b       7.620549
_cell_length_c       7.620549
_cell_angle_alpha    90.0
_cell_angle_beta     90.0
_cell_angle_gamma    90.0

_space_group_name_H-M_alt    "P 1"
_space_group_IT_number       1

loop_
  _space_group_symop_operation_xyz
  'x, y, z'

loop_
  _atom_site_type_symbol
  _atom_site_label
  _atom_site_symmetry_multiplicity
  _atom_site_fract_x
  _atom_site_fract_y
  _atom_site_fract_z
  _atom_site_occupancy
  Sn  Sn1       1.0  0.6546044604410977  0.7224187656518719  0.8175193128506011  1.0000
  Sn  Sn2       1.0  0.7222341634240341  0.3138621504785361  0.39092797425649223  1.0000
  Sn  Sn3       1.0  0.2691070545969785  0.6584137694396088  0.16782396442598063  1.0000
  Sn  Sn4       1.0  0.19402714706522967  0.3055252437365653  0.6173541844281818  1.0000
  W   W1        1.0  0.2979318727541961  0.17216242409778315  0.14085801818883875  1.0000
  W   W2        1.0  0.20815294991912872  0.7974881045674481  0.6960359497639437  1.0000
  W   W3        1.0  0.7963199869243007  0.24458973266139541  0.8662161227715488  1.0000
  W   W4        1.0  0.7795844703517416  0.7794815001070022  0.31109149235754857  1.0000
  O   O1        1.0  0.6603605528965772  0.05100369078803231  0.8368235022180246  1.0000
  O   O2        1.0  0.30943236345689107  0.2926386294130192  0.9434073647336921  1.0000
  O   O3        1.0  0.2566156353681991  0.6803246860209421  0.47441741460023684  1.0000
  O   O4        1.0  0.21248694078699595  0.9400082869898493  0.13669790306660107  1.0000
  O   O5        1.0  0.629047822319  0.3250296597826728  0.7126516336396791  1.0000
  O   O6        1.0  0.1788867088773436  0.32287462259987426  0.28169862042658456  1.0000
  O   O7        1.0  0.2499220065492238  0.9991013050322066  0.6064550164756235  1.0000
  O   O8        1.0  0.9890926946256422  0.7103125030133196  0.19756531155657822  1.0000
  O   O9        1.0  0.5068367087017316  0.15591117723889214  0.2598775056058192  1.0000
  O   O10       1.0  0.9897711960567116  0.7944040780104396  0.7505510214427273  1.0000
  O   O11       1.0  0.021896445127931985  0.17643912776223505  0.8031319969950613  1.0000
  O   O12       1.0  0.6575257435498502  0.8352023376684047  0.13138315536961073  1.0000
  O   O13       1.0  0.7938134607204259  0.960101820539434  0.47331744493354316  1.0000
  O   O14       1.0  0.4044248418760122  0.7886827187255138  0.8463255411951843  1.0000
  O   O15       1.0  0.7332956849183084  0.3631813189622005  0.055411457569395584  1.0000
  O   O16       1.0  0.6444550331391731  0.5769628904149445  0.3878322134441655  1.0000
data_image30
_chemical_formula_structural       Sn4W4O16
_chemical_formula_sum              "Sn4 W4 O16"
_cell_length_a       7.620549
_cell_length_b       7.620549
_cell_length_c       7.620549
_cell_angle_alpha    90.0
_cell_angle_beta     90.0
_cell_angle_gamma    90.0

_space_group_name_H-M_alt    "P 1"
_space_group_IT_number       1

loop_
  _space_group_symop_operation_xyz
  'x, y, z'

loop_
  _atom_site_type_symbol
  _atom_site_label
  _atom_site_symmetry_multiplicity
  _atom_site_fract_x
  _atom_site_fract_y
  _atom_site_fract_z
  _atom_site_occupancy
  Sn  Sn1       1.0  0.7652125482499113  0.7352941296291146  0.8127807970602756  1.0000
  Sn  Sn2       1.0  0.7264337730549193  0.2687529388415127  0.38448353915029027  1.0000
  Sn  Sn3       1.0  0.2609442593843945  0.685696313839485  0.10133208079434303  1.0000
  Sn  Sn4       1.0  0.16110506075354739  0.31861921175132074  0.6573299467997743  1.0000
  W   W1        1.0  0.2803273218935412  0.15619030929839017  0.21404280560939254  1.0000
  W   W2        1.0  0.2163200203038553  0.7852433074054841  0.6819153652271486  1.0000
  W   W3        1.0  0.7423490217596249  0.23296941324541315  0.8392119478590734  1.0000
  W   W4        1.0  0.7853620323608713  0.8105301187957932  0.28926412919089  1.0000
  O   O1        1.0  0.6170462981216138  0.02898084408630504  0.8002217475721158  1.0000
  O   O2        1.0  0.3052668732015387  0.32891362158447207  0.04474729349024642  1.0000
  O   O3        1.0  0.27326067948718935  0.6309381768536128  0.4956572785482085  1.0000
  O   O4        1.0  0.2235482746470032  0.9556086131151249  0.09459511095656288  1.0000
  O   O5        1.0  0.7189350877623373  0.41151687216837374  0.6596987576181454  1.0000
  O   O6        1.0  0.1083212045053239  0.2346727788707582  0.3732635825477178  1.0000
  O   O7        1.0  0.25742489640995764  0.02522036289157939  0.6102599550631423  1.0000
  O   O8        1.0  0.018332593556047168  0.7612046442548874  0.26789473340073355  1.0000
  O   O9        1.0  0.4988298845515527  0.17119351777948208  0.3038167707006622  1.0000
  O   O10       1.0  0.05159864514828625  0.6986987270937512  0.8378584160746338  1.0000
  O   O11       1.0  0.9661775637319663  0.13704815765083506  0.8296858511035134  1.0000
  O   O12       1.0  0.7163783232161895  0.8282332590613262  0.04802280866212519  1.0000
  O   O13       1.0  0.8323705990585848  0.010763758575270899  0.4108915054715039  1.0000
  O   O14       1.0  0.3965011494500529  0.7792177371068966  0.7974846044527115  1.0000
  O   O15       1.0  0.7167919835021196  0.31145372809728866  0.040458473538034445  1.0000
  O   O16       1.0  0.6340805081684561  0.7021332949912101  0.4360225418773441  1.0000
data_image31
_chemical_formula_structural       Sn4W4O16
_chemical_formula_sum              "Sn4 W4 O16"
_cell_length_a       7.620549
_cell_length_b       7.620549
_cell_length_c       7.620549
_cell_angle_alpha    90.0
_cell_angle_beta     90.0
_cell_angle_gamma    90.0

_space_group_name_H-M_alt    "P 1"
_space_group_IT_number       1

loop_
  _space_group_symop_operation_xyz
  'x, y, z'

loop_
  _atom_site_type_symbol
  _atom_site_label
  _atom_site_symmetry_multiplicity
  _atom_site_fract_x
  _atom_site_fract_y
  _atom_site_fract_z
  _atom_site_occupancy
  Sn  Sn1       1.0  0.7442138459857943  0.747408702168726  0.8048176680261785  1.0000
  Sn  Sn2       1.0  0.7731388876796829  0.3336263004673783  0.38600698187711563  1.0000
  Sn  Sn3       1.0  0.28127982656646944  0.6448757316860178  0.04225865505473851  1.0000
  Sn  Sn4       1.0  0.144646722671823  0.2926474894346636  0.7045850172828158  1.0000
  W   W1        1.0  0.28402678585331675  0.17960305791683875  0.2330561156375574  1.0000
  W   W2        1.0  0.2075459280649223  0.7737492021721315  0.6432586628179782  1.0000
  W   W3        1.0  0.7228822108054083  0.19897563077531982  0.8525270327944269  1.0000
  W   W4        1.0  0.8037323773377734  0.8213250906711869  0.2950012473807862  1.0000
  O   O1        1.0  0.5520174759879869  0.026629398141203103  0.8354827445821962  1.0000
  O   O2        1.0  0.28757787863275125  0.34850081204263605  0.04559879110105003  1.0000
  O   O3        1.0  0.18303043828287205  0.6955408851728284  0.4284782781012442  1.0000
  O   O4        1.0  0.3256061418785393  0.9523554786308189  0.21155139131413753  1.0000
  O   O5        1.0  0.7330211373506359  0.42004844858069995  0.7151310296950002  1.0000
  O   O6        1.0  0.1347659638837715  0.2444112872004314  0.41480000718312965  1.0000
  O   O7        1.0  0.22298036428162074  0.006632038736593813  0.6491641227839962  1.0000
  O   O8        1.0  0.9930734535351473  0.70310003732644  0.183404224682697  1.0000
  O   O9        1.0  0.49350226215201465  0.28966825162300863  0.298291662581785  1.0000
  O   O10       1.0  0.02489681871097678  0.6464331432160735  0.7512130140273509  1.0000
  O   O11       1.0  0.9445965232934652  0.09802410930487619  0.8903349468607995  1.0000
  O   O12       1.0  0.7060343434892797  0.9546050106902673  0.1181782220907679  1.0000
  O   O13       1.0  0.8290317268081547  0.02861002584037209  0.4371710639619601  1.0000
  O   O14       1.0  0.3580351080837455  0.636716444345648  0.7459695564903581  1.0000
  O   O15       1.0  0.7145874562427861  0.3419317737119096  0.027742741012815708  1.0000
  O   O16       1.0  0.6829514824912796  0.6697163587259732  0.43244895237095593  1.0000
data_image32
_chemical_formula_structural       Sn4W4O16
_chemical_formula_sum              "Sn4 W4 O16"
_cell_length_a       7.620549
_cell_length_b       7.620549
_cell_length_c       7.620549
_cell_angle_alpha    90.0
_cell_angle_beta     90.0
_cell_angle_gamma    90.0

_space_group_name_H-M_alt    "P 1"
_space_group_IT_number       1

loop_
  _space_group_symop_operation_xyz
  'x, y, z'

loop_
  _atom_site_type_symbol
  _atom_site_label
  _atom_site_symmetry_multiplicity
  _atom_site_fract_x
  _atom_site_fract_y
  _atom_site_fract_z
  _atom_site_occupancy
  Sn  Sn1       1.0  0.6834340418969347  0.7661880836839288  0.8251195289860429  1.0000
  Sn  Sn2       1.0  0.7608440645331601  0.3503272063778043  0.3706319956171459  1.0000
  Sn  Sn3       1.0  0.3430716638244095  0.5967517914670974  0.05641533590048159  1.0000
  Sn  Sn4       1.0  0.18548061481269718  0.2322601706868446  0.6822142645407239  1.0000
  W   W1        1.0  0.3062962463265234  0.24958790907731565  0.2558052059858401  1.0000
  W   W2        1.0  0.18687951109472342  0.7571862916164291  0.6432729565274296  1.0000
  W   W3        1.0  0.7110653165699228  0.20550080994059836  0.8689418341057074  1.0000
  W   W4        1.0  0.819751424013039  0.8074275598491019  0.26231744059724077  1.0000
  O   O1        1.0  0.5201646144614354  0.11076694326741655  0.7596012086787347  1.0000
  O   O2        1.0  0.2786282087657596  0.36491775343290944  0.0248771838518298  1.0000
  O   O3        1.0  0.26426404302451245  0.7501349413412502  0.4331408731205629  1.0000
  O   O4        1.0  0.2418462212654412  0.024630263471681957  0.24278119079144667  1.0000
  O   O5        1.0  0.7468344066601784  0.3808793588131638  0.6922644723623632  1.0000
  O   O6        1.0  0.12737512290981656  0.3066308413112684  0.3923180346247127  1.0000
  O   O7        1.0  0.2559829140543009  0.9654050480019557  0.7163791994721227  1.0000
  O   O8        1.0  0.8695763409488808  0.7340590737437583  0.044642372107706156  1.0000
  O   O9        1.0  0.5130031817086497  0.2476773640394669  0.4254811349774753  1.0000
  O   O10       1.0  0.9754006361061479  0.7070145608791085  0.6879311328351809  1.0000
  O   O11       1.0  0.9216143989244971  0.07611325879539708  0.8491621312824069  1.0000
  O   O12       1.0  0.6133130316003316  0.9131337462400135  0.2164419075167628  1.0000
  O   O13       1.0  0.9292573509807543  0.9565082849952943  0.41099844975361177  1.0000
  O   O14       1.0  0.29673349247749325  0.5960473822686002  0.7890650477835062  1.0000
  O   O15       1.0  0.655391592045609  0.31307652602514496  0.1036517260624108  1.0000
  O   O16       1.0  0.6986563553466663  0.6275379702892546  0.3789699594404132  1.0000
data_image33
_chemical_formula_structural       Sn4W4O16
_chemical_formula_sum              "Sn4 W4 O16"
_cell_length_a       7.620549
_cell_length_b       7.620549
_cell_length_c       7.620549
_cell_angle_alpha    90.0
_cell_angle_beta     90.0
_cell_angle_gamma    90.0

_space_group_name_H-M_alt    "P 1"
_space_group_IT_number       1

loop_
  _space_group_symop_operation_xyz
  'x, y, z'

loop_
  _atom_site_type_symbol
  _atom_site_label
  _atom_site_symmetry_multiplicity
  _atom_site_fract_x
  _atom_site_fract_y
  _atom_site_fract_z
  _atom_site_occupancy
  Sn  Sn1       1.0  0.6881864918689747  0.7257045323753293  0.7595334011993556  1.0000
  Sn  Sn2       1.0  0.734347051345209  0.3463008881691349  0.35219607071706016  1.0000
  Sn  Sn3       1.0  0.3903438133710124  0.6435554427142082  0.12988459049555115  1.0000
  Sn  Sn4       1.0  0.20763659879484192  0.23101717515193484  0.7083428187177511  1.0000
  W   W1        1.0  0.2762569674407325  0.24192748675912698  0.2831012144635306  1.0000
  W   W2        1.0  0.1926429851445878  0.7145649651798259  0.6347424518345549  1.0000
  W   W3        1.0  0.6843547522764977  0.2498135898096185  0.8865848201756139  1.0000
  W   W4        1.0  0.8274637503928591  0.8138223236461829  0.22788671083239437  1.0000
  O   O1        1.0  0.5364332074869554  0.10864089310897254  0.7667641040947277  1.0000
  O   O2        1.0  0.272345648952372  0.3491939542866531  0.0678729675899934  1.0000
  O   O3        1.0  0.31297179379031725  0.6775458142268691  0.4303188994374209  1.0000
  O   O4        1.0  0.3207633692093962  0.01295370554020181  0.2569062150237834  1.0000
  O   O5        1.0  0.7705472241819858  0.42604952392979123  0.7468034766264067  1.0000
  O   O6        1.0  0.04834515402642503  0.3247191138743768  0.3694725647331536  1.0000
  O   O7        1.0  0.29209899462949845  0.89388726130632  0.7562373282649213  1.0000
  O   O8        1.0  0.9094927995573823  0.7564187739061223  0.01456878229460376  1.0000
  O   O9        1.0  0.4641869333637057  0.3253553792014577  0.4203951712741945  1.0000
  O   O10       1.0  0.9594630061379777  0.7513885545306888  0.6286722428632961  1.0000
  O   O11       1.0  0.8660580301547498  0.10460444250015442  0.9006418761495506  1.0000
  O   O12       1.0  0.5863056443970158  0.8514126487754503  0.17946570636227233  1.0000
  O   O13       1.0  0.9825371538413173  0.9683076541209807  0.29951799781560373  1.0000
  O   O14       1.0  0.2794828726561335  0.5097128463314732  0.7497193803673539  1.0000
  O   O15       1.0  0.6254704917361504  0.3854953354299454  0.0969758915915131  1.0000
  O   O16       1.0  0.7998985213182022  0.6141568337887687  0.3660025527293639  1.0000
data_image34
_chemical_formula_structural       Sn4W4O16
_chemical_formula_sum              "Sn4 W4 O16"
_cell_length_a       7.620549
_cell_length_b       7.620549
_cell_length_c       7.620549
_cell_angle_alpha    90.0
_cell_angle_beta     90.0
_cell_angle_gamma    90.0

_space_group_name_H-M_alt    "P 1"
_space_group_IT_number       1

loop_
  _space_group_symop_operation_xyz
  'x, y, z'

loop_
  _atom_site_type_symbol
  _atom_site_label
  _atom_site_symmetry_multiplicity
  _atom_site_fract_x
  _atom_site_fract_y
  _atom_site_fract_z
  _atom_site_occupancy
  Sn  Sn1       1.0  0.7218597317702851  0.7536622666985527  0.6944434755269854  1.0000
  Sn  Sn2       1.0  0.7626401613140049  0.3088769798101002  0.3554045095226963  1.0000
  Sn  Sn3       1.0  0.36334201482548995  0.6579161678488022  0.17354163373956102  1.0000
  Sn  Sn4       1.0  0.23040347718296478  0.21362443870315165  0.7491791298754563  1.0000
  W   W1        1.0  0.23246638125613966  0.256324873681093  0.33821337451409617  1.0000
  W   W2        1.0  0.2204571571700755  0.6819379199401336  0.6168911775762653  1.0000
  W   W3        1.0  0.6756282388344943  0.30071041278967536  0.8773023722214356  1.0000
  W   W4        1.0  0.812070446192953  0.7838034107297583  0.19471869837269723  1.0000
  O   O1        1.0  0.5827239767179456  0.087732780260219  0.8041732877056988  1.0000
  O   O2        1.0  0.20790799365700252  0.4114242559293153  0.1434337956260141  1.0000
  O   O3        1.0  0.3950825765371609  0.7039273574796152  0.4416781861072808  1.0000
  O   O4        1.0  0.28837362331929123  0.07037688679455267  0.19946228823840545  1.0000
  O   O5        1.0  0.7230479958578602  0.4224057560677495  0.6580741934759275  1.0000
  O   O6        1.0  0.07438426528909292  0.2992264800138394  0.5195430482276487  1.0000
  O   O7        1.0  0.26476747520186766  0.9184189286182458  0.670793920975907  1.0000
  O   O8        1.0  0.8328148945907465  0.7340877546876391  0.9616314163030848  1.0000
  O   O9        1.0  0.44084290591088876  0.3283274077967169  0.4623837350470802  1.0000
  O   O10       1.0  0.9784783129332726  0.6617138210413454  0.5862532984236121  1.0000
  O   O11       1.0  0.8733594594851718  0.17750123760188624  0.9084973084139499  1.0000
  O   O12       1.0  0.5782254124598319  0.8229843667365232  0.21993226751247982  1.0000
  O   O13       1.0  0.9550319380280213  0.9727683888641983  0.26874346811063954  1.0000
  O   O14       1.0  0.3172967592238103  0.5208602141772098  0.7664062316784475  1.0000
  O   O15       1.0  0.6492460870015317  0.40068690730717327  0.09513414640486473  1.0000
  O   O16       1.0  0.9085125862838932  0.5738988928006729  0.23874728597698064  1.0000
data_image35
_chemical_formula_structural       Sn4W4O16
_chemical_formula_sum              "Sn4 W4 O16"
_cell_length_a       7.620549
_cell_length_b       7.620549
_cell_length_c       7.620549
_cell_angle_alpha    90.0
_cell_angle_beta     90.0
_cell_angle_gamma    90.0

_space_group_name_H-M_alt    "P 1"
_space_group_IT_number       1

loop_
  _space_group_symop_operation_xyz
  'x, y, z'

loop_
  _atom_site_type_symbol
  _atom_site_label
  _atom_site_symmetry_multiplicity
  _atom_site_fract_x
  _atom_site_fract_y
  _atom_site_fract_z
  _atom_site_occupancy
  Sn  Sn1       1.0  0.7362065369584447  0.7072670136207103  0.6430500407892932  1.0000
  Sn  Sn2       1.0  0.7236102734015618  0.26985513801492633  0.3965624535666376  1.0000
  Sn  Sn3       1.0  0.3381434764700274  0.6874360898601757  0.14989519606023005  1.0000
  Sn  Sn4       1.0  0.22183007589512657  0.19283135184550435  0.8623596088114784  1.0000
  W   W1        1.0  0.22831513246054919  0.3073843396642127  0.3585072309052509  1.0000
  W   W2        1.0  0.22828581760168684  0.6900967604632321  0.6320099318185237  1.0000
  W   W3        1.0  0.6836861843728262  0.32016153482311216  0.8678647813303292  1.0000
  W   W4        1.0  0.8534380392489476  0.7593202008218716  0.12514199097043832  1.0000
  O   O1        1.0  0.5626275433594081  0.12527898016724362  0.8491709382951032  1.0000
  O   O2        1.0  0.2580570184358373  0.44126612883584077  0.1319703386301807  1.0000
  O   O3        1.0  0.312591556776736  0.5584594353729465  0.4287013660097203  1.0000
  O   O4        1.0  0.159241207363755  0.13709163654968903  0.1996071533707213  1.0000
  O   O5        1.0  0.6272323914547229  0.4614016598066857  0.656370181783195  1.0000
  O   O6        1.0  0.03801096434869544  0.2839026897622996  0.4715770471942268  1.0000
  O   O7        1.0  0.34228223331845015  0.8941356758899661  0.6836955535494323  1.0000
  O   O8        1.0  0.8523806129742295  0.7735508443023791  0.8931393435549736  1.0000
  O   O9        1.0  0.4428807536049808  0.22563971158325857  0.4610516641547958  1.0000
  O   O10       1.0  0.0023533826887132923  0.6494576167492757  0.6509889263878965  1.0000
  O   O11       1.0  0.8973453504940623  0.22542706662050008  0.8841191603522465  1.0000
  O   O12       1.0  0.6599032913173303  0.9066819906443471  0.1622885438936559  1.0000
  O   O13       1.0  0.011891747455309298  0.8532132909785904  0.2647589448465639  1.0000
  O   O14       1.0  0.29702433089303887  0.5631044251472538  0.808158230378134  1.0000
  O   O15       1.0  0.6140587612602586  0.4259321799598381  0.055477819833972486  1.0000
  O   O16       1.0  0.8176115122475264  0.5334104226611676  0.26301030595944147  1.0000
data_image36
_chemical_formula_structural       Sn4W4O16
_chemical_formula_sum              "Sn4 W4 O16"
_cell_length_a       7.620549
_cell_length_b       7.620549
_cell_length_c       7.620549
_cell_angle_alpha    90.0
_cell_angle_beta     90.0
_cell_angle_gamma    90.0

_space_group_name_H-M_alt    "P 1"
_space_group_IT_number       1

loop_
  _space_group_symop_operation_xyz
  'x, y, z'

loop_
  _atom_site_type_symbol
  _atom_site_label
  _atom_site_symmetry_multiplicity
  _atom_site_fract_x
  _atom_site_fract_y
  _atom_site_fract_z
  _atom_site_occupancy
  Sn  Sn1       1.0  0.69362252190216  0.699754473338041  0.5606637421650184  1.0000
  Sn  Sn2       1.0  0.7271763797438733  0.2766926146968781  0.4136278917125202  1.0000
  Sn  Sn3       1.0  0.37425332886918694  0.7167743635796752  0.08545955697332923  1.0000
  Sn  Sn4       1.0  0.23519726644857866  0.1513969521201276  0.9553844718502031  1.0000
  W   W1        1.0  0.26987660202656005  0.3319699020389012  0.33499207720267266  1.0000
  W   W2        1.0  0.20243221837837055  0.6255903528548529  0.6744613124740941  1.0000
  W   W3        1.0  0.6424615067560957  0.3345487941651167  0.8701341980268356  1.0000
  W   W4        1.0  0.8597759443180366  0.7741657103994461  0.11317912400086037  1.0000
  O   O1        1.0  0.5066039870137679  0.10833210692561414  0.8602964398186924  1.0000
  O   O2        1.0  0.18874767986588556  0.530537533305231  0.18368100211406713  1.0000
  O   O3        1.0  0.3725576215802675  0.6320007069562878  0.5059210029587938  1.0000
  O   O4        1.0  0.3003526523344142  0.08227066513158032  0.23065409006907478  1.0000
  O   O5        1.0  0.6894773927054291  0.425729501257106  0.6501740350271922  1.0000
  O   O6        1.0  0.14420923128599106  0.3256339481209736  0.5325005682980909  1.0000
  O   O7        1.0  0.22658514786710474  0.8478124051552645  0.7959844967877179  1.0000
  O   O8        1.0  0.799263504380344  0.6273473329482439  0.8968353031991896  1.0000
  O   O9        1.0  0.4851155068491742  0.3149220493643674  0.43052294404099123  1.0000
  O   O10       1.0  0.9577133116771933  0.6459452781993683  0.6333872372646114  1.0000
  O   O11       1.0  0.8753930591268084  0.26055605695314976  0.9107754827426788  1.0000
  O   O12       1.0  0.8341579879354439  0.009360388544097153  0.09633585791196615  1.0000
  O   O13       1.0  0.08651945520388105  0.8095902076714685  0.054939964821067507  1.0000
  O   O14       1.0  0.3001205080255209  0.5202700566495062  0.8434899783241149  1.0000
  O   O15       1.0  0.5394553067242104  0.4443514727512246  0.06920944044597799  1.0000
  O   O16       1.0  0.726880561077691  0.6834212136894722  0.32032429277967267  1.0000
data_image37
_chemical_formula_structural       Sn4W4O16
_chemical_formula_sum              "Sn4 W4 O16"
_cell_length_a       7.620549
_cell_length_b       7.620549
_cell_length_c       7.620549
_cell_angle_alpha    90.0
_cell_angle_beta     90.0
_cell_angle_gamma    90.0

_space_group_name_H-M_alt    "P 1"
_space_group_IT_number       1

loop_
  _space_group_symop_operation_xyz
  'x, y, z'

loop_
  _atom_site_type_symbol
  _atom_site_label
  _atom_site_symmetry_multiplicity
  _atom_site_fract_x
  _atom_site_fract_y
  _atom_site_fract_z
  _atom_site_occupancy
  Sn  Sn1       1.0  0.6500397253546599  0.7214229395709015  0.6014960714069179  1.0000
  Sn  Sn2       1.0  0.8094001286036749  0.2833490002012999  0.35622038123325933  1.0000
  Sn  Sn3       1.0  0.42295958069934736  0.6215530900950005  0.03237562965492654  1.0000
  Sn  Sn4       1.0  0.20024746550106143  0.13636223627963354  0.8971738595955043  1.0000
  W   W1        1.0  0.3061357511275185  0.3392256062615167  0.3462341450674329  1.0000
  W   W2        1.0  0.179630739281341  0.6155147480102179  0.6662725386339635  1.0000
  W   W3        1.0  0.6487792054281357  0.36639100748001113  0.9065346630930892  1.0000
  W   W4        1.0  0.820035576411717  0.7953505262280636  0.12498959431973093  1.0000
  O   O1        1.0  0.5286862281633711  0.16728277044922898  0.8466621532057668  1.0000
  O   O2        1.0  0.3052285434912201  0.6095439973432399  0.2837874458203262  1.0000
  O   O3        1.0  0.4107816710160619  0.5689640182426232  0.5981673969280317  1.0000
  O   O4        1.0  0.19844128725387702  0.2264000512618205  0.16599648327564545  1.0000
  O   O5        1.0  0.7339578270314586  0.4085235127795174  0.6456052359403016  1.0000
  O   O6        1.0  0.1869636440003004  0.33801978767689866  0.543069675480681  1.0000
  O   O7        1.0  0.295789456861604  0.7669093319780417  0.8163714753523791  1.0000
  O   O8        1.0  0.7307262817197169  0.6905120502543106  0.9147086033874858  1.0000
  O   O9        1.0  0.5111144705113864  0.23973612745626252  0.37288844954122013  1.0000
  O   O10       1.0  0.9898990716081182  0.7474505528191266  0.619031184532009  1.0000
  O   O11       1.0  0.816418605290855  0.2798344643997557  0.041708101372480044  1.0000
  O   O12       1.0  0.6690377994523252  0.8688979176619401  0.2950918843803297  1.0000
  O   O13       1.0  0.012511475792078786  0.9320568144357946  0.041319410759142125  1.0000
  O   O14       1.0  0.13966023064128  0.474023666701844  0.8932085291501607  1.0000
  O   O15       1.0  0.46905637434604536  0.3839788617347401  0.09558553540915082  1.0000
  O   O16       1.0  0.8809418447185648  0.5765533795346329  0.2141473418416656  1.0000
data_image38
_chemical_formula_structural       Sn4W4O16
_chemical_formula_sum              "Sn4 W4 O16"
_cell_length_a       7.620549
_cell_length_b       7.620549
_cell_length_c       7.620549
_cell_angle_alpha    90.0
_cell_angle_beta     90.0
_cell_angle_gamma    90.0

_space_group_name_H-M_alt    "P 1"
_space_group_IT_number       1

loop_
  _space_group_symop_operation_xyz
  'x, y, z'

loop_
  _atom_site_type_symbol
  _atom_site_label
  _atom_site_symmetry_multiplicity
  _atom_site_fract_x
  _atom_site_fract_y
  _atom_site_fract_z
  _atom_site_occupancy
  Sn  Sn1       1.0  0.6947709020280163  0.6939686578580395  0.570516153751166  1.0000
  Sn  Sn2       1.0  0.8424198421568813  0.3020645676880256  0.3220536643352046  1.0000
  Sn  Sn3       1.0  0.37728340869653637  0.6601797451161938  0.031094769304970953  1.0000
  Sn  Sn4       1.0  0.15366766084165762  0.18350644040578495  0.8910940433034287  1.0000
  W   W1        1.0  0.3504904803591572  0.40501577506780834  0.38884629155276657  1.0000
  W   W2        1.0  0.1815318539944326  0.5941709950333942  0.6851971459386402  1.0000
  W   W3        1.0  0.6726708627854271  0.3106255060976148  0.8723807790146579  1.0000
  W   W4        1.0  0.7609936164923319  0.7638656031135087  0.16035506501906477  1.0000
  O   O1        1.0  0.6017245323320978  0.14599258141964197  0.7276116784729494  1.0000
  O   O2        1.0  0.4264582014103825  0.6152833879735006  0.2865208354090416  1.0000
  O   O3        1.0  0.4261354193551797  0.5538666824266649  0.6225216094386985  1.0000
  O   O4        1.0  0.20469510701235213  0.30365191064637553  0.23417396151491088  1.0000
  O   O5        1.0  0.7720396867824807  0.44725369074467203  0.6740708518865941  1.0000
  O   O6        1.0  0.1941183739243897  0.3272494080949649  0.588314741986969  1.0000
  O   O7        1.0  0.24631617430029354  0.8160750171974577  0.7798757480016548  1.0000
  O   O8        1.0  0.6253156757476712  0.6360699986252828  0.9453166603074161  1.0000
  O   O9        1.0  0.5565343849771548  0.2529067708098646  0.35772497606351134  1.0000
  O   O10       1.0  0.012987196368800523  0.674206471666821  0.5704432462472088  1.0000
  O   O11       1.0  0.842271297307817  0.22198449602693404  0.006365406873730217  1.0000
  O   O12       1.0  0.6367831067523  0.9231329209416168  0.2799711877490303  1.0000
  O   O13       1.0  0.8693743930525341  0.8447402327645921  0.9908387432460632  1.0000
  O   O14       1.0  0.10510397511280503  0.4720113230299679  0.8810096766252771  1.0000
  O   O15       1.0  0.4606985620117562  0.3674278999924219  0.9764518929832303  1.0000
  O   O16       1.0  0.8918582396122893  0.5794349813568459  0.2593929336006151  1.0000
data_image39
_chemical_formula_structural       Sn4W4O16
_chemical_formula_sum              "Sn4 W4 O16"
_cell_length_a       7.620549
_cell_length_b       7.620549
_cell_length_c       7.620549
_cell_angle_alpha    90.0
_cell_angle_beta     90.0
_cell_angle_gamma    90.0

_space_group_name_H-M_alt    "P 1"
_space_group_IT_number       1

loop_
  _space_group_symop_operation_xyz
  'x, y, z'

loop_
  _atom_site_type_symbol
  _atom_site_label
  _atom_site_symmetry_multiplicity
  _atom_site_fract_x
  _atom_site_fract_y
  _atom_site_fract_z
  _atom_site_occupancy
  Sn  Sn1       1.0  0.7315917320133212  0.7198145007545228  0.6236057494776297  1.0000
  Sn  Sn2       1.0  0.8529244909504433  0.2723182247654583  0.2876286347675551  1.0000
  Sn  Sn3       1.0  0.3373483843953557  0.6667979114603663  0.028384360885076017  1.0000
  Sn  Sn4       1.0  0.13893274974537512  0.22802219940318902  0.967704339352376  1.0000
  W   W1        1.0  0.4152762783330204  0.4211501046573873  0.40980490282927373  1.0000
  W   W2        1.0  0.15082983206869638  0.5633175578762007  0.682962852652975  1.0000
  W   W3        1.0  0.6422348007298055  0.29728679768934524  0.8307246704498602  1.0000
  W   W4        1.0  0.751926846421956  0.7530161750293418  0.13078613021448554  1.0000
  O   O1        1.0  0.6791499557714284  0.08636886113337369  0.7492888366037367  1.0000
  O   O2        1.0  0.5299102436018561  0.6466822308229697  0.2731946227522146  1.0000
  O   O3        1.0  0.376139740626234  0.6282921280723496  0.5540338929933316  1.0000
  O   O4        1.0  0.24901079874213156  0.4089764381738299  0.19136115467564072  1.0000
  O   O5        1.0  0.75186939089248  0.4453308691495173  0.6574903055233732  1.0000
  O   O6        1.0  0.25128438614855075  0.31046447632257795  0.5953044559662285  1.0000
  O   O7        1.0  0.21798131074274468  0.769394415170171  0.8225365559716961  1.0000
  O   O8        1.0  0.6561582584386274  0.6522287030114716  0.9231327442967806  1.0000
  O   O9        1.0  0.5910993913297643  0.22640661353685726  0.3370890881747711  1.0000
  O   O10       1.0  0.9702390501782958  0.6257989512473453  0.5171452485844066  1.0000
  O   O11       1.0  0.7860860109609062  0.3286728592798988  0.006560532942279762  1.0000
  O   O12       1.0  0.6951271691996403  0.9343535160445032  0.2930631699546204  1.0000
  O   O13       1.0  0.9595773696020748  0.8833499218247207  0.11018218504084729  1.0000
  O   O14       1.0  0.05006343676018115  0.481385571488095  0.8833054343074251  1.0000
  O   O15       1.0  0.4124046094532957  0.3125029933283268  0.9053516039709129  1.0000
  O   O16       1.0  0.827147951673038  0.5584196836774649  0.2483977770936582  1.0000
data_image40
_chemical_formula_structural       Sn4W4O16
_chemical_formula_sum              "Sn4 W4 O16"
_cell_length_a       7.620549
_cell_length_b       7.620549
_cell_length_c       7.620549
_cell_angle_alpha    90.0
_cell_angle_beta     90.0
_cell_angle_gamma    90.0

_space_group_name_H-M_alt    "P 1"
_space_group_IT_number       1

loop_
  _space_group_symop_operation_xyz
  'x, y, z'

loop_
  _atom_site_type_symbol
  _atom_site_label
  _atom_site_symmetry_multiplicity
  _atom_site_fract_x
  _atom_site_fract_y
  _atom_site_fract_z
  _atom_site_occupancy
  Sn  Sn1       1.0  0.7345543667317356  0.7855225202697722  0.7075974123791259  1.0000
  Sn  Sn2       1.0  0.8200694708164498  0.2512080252351604  0.32517302814154003  1.0000
  Sn  Sn3       1.0  0.3436862736311144  0.6756306768434992  0.0003067811846448983  1.0000
  Sn  Sn4       1.0  0.1976987112787746  0.22254612296168955  0.04444885181160663  1.0000
  W   W1        1.0  0.426961245647146  0.4426508269209244  0.3834071063571795  1.0000
  W   W2        1.0  0.12575005740573333  0.5666555297732672  0.6680818914798685  1.0000
  W   W3        1.0  0.6437268711751696  0.2795030394094845  0.8215038883070631  1.0000
  W   W4        1.0  0.7643533631511965  0.7167598604920565  0.11492351770417027  1.0000
  O   O1        1.0  0.6125045207811779  0.07667677830864174  0.7078629283406928  1.0000
  O   O2        1.0  0.5758137378964795  0.5624992642093197  0.20923087785601702  1.0000
  O   O3        1.0  0.3286020373010042  0.6523287790796191  0.4463744997686275  1.0000
  O   O4        1.0  0.26925822718141335  0.3257629192680891  0.25655999601572627  1.0000
  O   O5        1.0  0.5971286161221785  0.47152500332407105  0.6839923215530259  1.0000
  O   O6        1.0  0.30753368098796274  0.39528534858846964  0.5747696151972335  1.0000
  O   O7        1.0  0.29439651342500534  0.7499955163234446  0.7244948438552394  1.0000
  O   O8        1.0  0.569123052504029  0.7828303436576589  0.9429032853363553  1.0000
  O   O9        1.0  0.5794203076767301  0.24453415106357582  0.427561340058181  1.0000
  O   O10       1.0  0.9306243198186717  0.6546274644480149  0.5261727085042393  1.0000
  O   O11       1.0  0.726656768751716  0.36338524813863615  0.016348352777948216  1.0000
  O   O12       1.0  0.7518854259054352  0.945174633971082  0.1843647846750167  1.0000
  O   O13       1.0  0.9083218342458115  0.7970972426578534  0.9064847854380483  1.0000
  O   O14       1.0  0.016861810415926444  0.4235145970925318  0.8525952466463768  1.0000
  O   O15       1.0  0.39707302946343337  0.29006170790453334  0.8809148934506094  1.0000
  O   O16       1.0  0.8681165135113352  0.5606187862457429  0.2277620905493026  1.0000
data_image41
_chemical_formula_structural       Sn4W4O16
_chemical_formula_sum              "Sn4 W4 O16"
_cell_length_a       7.620549
_cell_length_b       7.620549
_cell_length_c       7.620549
_cell_angle_alpha    90.0
_cell_angle_beta     90.0
_cell_angle_gamma    90.0

_space_group_name_H-M_alt    "P 1"
_space_group_IT_number       1

loop_
  _space_group_symop_operation_xyz
  'x, y, z'

loop_
  _atom_site_type_symbol
  _atom_site_label
  _atom_site_symmetry_multiplicity
  _atom_site_fract_x
  _atom_site_fract_y
  _atom_site_fract_z
  _atom_site_occupancy
  Sn  Sn1       1.0  0.7607258791598664  0.865760334636161  0.7171405486937611  1.0000
  Sn  Sn2       1.0  0.876065368503881  0.2455720084446654  0.3341108304760022  1.0000
  Sn  Sn3       1.0  0.30091858726057474  0.7368626153841223  0.055993702890619945  1.0000
  Sn  Sn4       1.0  0.10779502146798041  0.12672677183872952  0.930959033157597  1.0000
  W   W1        1.0  0.40345625073248104  0.4351985408794823  0.38886502182955784  1.0000
  W   W2        1.0  0.1262080973421274  0.5611278616532897  0.6674132942378653  1.0000
  W   W3        1.0  0.6269438063840184  0.2911762252171705  0.7898547703388457  1.0000
  W   W4        1.0  0.794068415627547  0.7025603592350227  0.11786028889221575  1.0000
  O   O1        1.0  0.8504787166469711  0.24219170295811177  0.6619023212340148  1.0000
  O   O2        1.0  0.6005000083257879  0.5684575163587333  0.3498734494427995  1.0000
  O   O3        1.0  0.24991798338074162  0.6443353256988649  0.49717293248739297  1.0000
  O   O4        1.0  0.33929861422795893  0.32103839707009296  0.17111349373980644  1.0000
  O   O5        1.0  0.639891581595044  0.5351918114641818  0.7883744958123347  1.0000
  O   O6        1.0  0.25112630604770314  0.3432652481179462  0.5827759522001462  1.0000
  O   O7        1.0  0.2893893720790227  0.734057125737561  0.7780908463948296  1.0000
  O   O8        1.0  0.5618206190773289  0.7778755974096363  0.06136039639696834  1.0000
  O   O9        1.0  0.5382477737657093  0.2823798033941834  0.5131287692078584  1.0000
  O   O10       1.0  0.918346854174736  0.6964931361611558  0.5875398403120599  1.0000
  O   O11       1.0  0.7329401107102639  0.2239610640019326  0.985242260136769  1.0000
  O   O12       1.0  0.8722584564762252  0.8660387533515324  0.2460236003412293  1.0000
  O   O13       1.0  0.9245248869498129  0.7897370464461704  0.9303587451855658  1.0000
  O   O14       1.0  0.14798757243226926  0.4357576093961012  0.8841308319399973  1.0000
  O   O15       1.0  0.42697036146927386  0.21352283288546556  0.8844537614817485  1.0000
  O   O16       1.0  0.8733206500798195  0.503212477978625  0.20417439460663991  1.0000
data_image42
_chemical_formula_structural       Sn4W4O16
_chemical_formula_sum              "Sn4 W4 O16"
_cell_length_a       7.620549
_cell_length_b       7.620549
_cell_length_c       7.620549
_cell_angle_alpha    90.0
_cell_angle_beta     90.0
_cell_angle_gamma    90.0

_space_group_name_H-M_alt    "P 1"
_space_group_IT_number       1

loop_
  _space_group_symop_operation_xyz
  'x, y, z'

loop_
  _atom_site_type_symbol
  _atom_site_label
  _atom_site_symmetry_multiplicity
  _atom_site_fract_x
  _atom_site_fract_y
  _atom_site_fract_z
  _atom_site_occupancy
  Sn  Sn1       1.0  0.789214783051655  0.8787356162767302  0.7433378425966458  1.0000
  Sn  Sn2       1.0  0.8170862995387678  0.31264231734793774  0.35471428483159106  1.0000
  Sn  Sn3       1.0  0.2459613493919377  0.7582815346245926  0.11068111942280244  1.0000
  Sn  Sn4       1.0  0.06184212708158323  0.18752896131162708  0.8684867139370562  1.0000
  W   W1        1.0  0.4283652286405922  0.4051511583483745  0.3926989754384911  1.0000
  W   W2        1.0  0.1194051098828684  0.532971069851555  0.6446075767122975  1.0000
  W   W3        1.0  0.6345027469382324  0.2809403009818887  0.7627819946005057  1.0000
  W   W4        1.0  0.8175945994566837  0.7064337634420966  0.15853445888885548  1.0000
  O   O1        1.0  0.892550831712958  0.18668102037995443  0.6128671633571181  1.0000
  O   O2        1.0  0.6402483972149141  0.5373358360607698  0.34900110781676097  1.0000
  O   O3        1.0  0.28484575659704736  0.6150547770213759  0.41504719620508024  1.0000
  O   O4        1.0  0.3791265822303987  0.34753588907968447  0.18897740861807755  1.0000
  O   O5        1.0  0.6644669891462303  0.49089620579536486  0.8552128867241948  1.0000
  O   O6        1.0  0.2799621574879645  0.3075527048190154  0.5816014203750755  1.0000
  O   O7        1.0  0.2805496823751781  0.6947209927580058  0.7612424810075138  1.0000
  O   O8        1.0  0.5981749771083749  0.780028893437981  0.048982136219774486  1.0000
  O   O9        1.0  0.555689848931628  0.2055853349957402  0.43964152834603754  1.0000
  O   O10       1.0  0.9197390667555378  0.6523401228351297  0.5888763800213114  1.0000
  O   O11       1.0  0.7805680401804833  0.12921124141404283  0.9338054308706034  1.0000
  O   O12       1.0  0.908643710134175  0.8774457194596839  0.26960301663853714  1.0000
  O   O13       1.0  0.9933797826194758  0.7722445060978674  0.9837153280688914  1.0000
  O   O14       1.0  0.06808732384910277  0.46076631809993274  0.8682875898374645  1.0000
  O   O15       1.0  0.42274762912713326  0.1722321854326044  0.7988816468419216  1.0000
  O   O16       1.0  0.9474891425826547  0.4824842509337904  0.1997572210864611  1.0000
data_image43
_chemical_formula_structural       Sn4W4O16
_chemical_formula_sum              "Sn4 W4 O16"
_cell_length_a       7.620549
_cell_length_b       7.620549
_cell_length_c       7.620549
_cell_angle_alpha    90.0
_cell_angle_beta     90.0
_cell_angle_gamma    90.0

_space_group_name_H-M_alt    "P 1"
_space_group_IT_number       1

loop_
  _space_group_symop_operation_xyz
  'x, y, z'

loop_
  _atom_site_type_symbol
  _atom_site_label
  _atom_site_symmetry_multiplicity
  _atom_site_fract_x
  _atom_site_fract_y
  _atom_site_fract_z
  _atom_site_occupancy
  Sn  Sn1       1.0  0.7331013371543325  0.8094357105049458  0.699448377797172  1.0000
  Sn  Sn2       1.0  0.8391315695921288  0.23232352999061842  0.34691506056296834  1.0000
  Sn  Sn3       1.0  0.2359970702296756  0.797190143687991  0.14843413014083873  1.0000
  Sn  Sn4       1.0  0.06434522475759581  0.18883932673203013  0.8943788711843799  1.0000
  W   W1        1.0  0.4318691711402679  0.3931031111387104  0.40528575753638757  1.0000
  W   W2        1.0  0.1559443241638609  0.5568899325328179  0.6337388917647844  1.0000
  W   W3        1.0  0.6312693151198133  0.27320570475488537  0.767514231946675  1.0000
  W   W4        1.0  0.8278245388261951  0.7545450213496976  0.14802823342074276  1.0000
  O   O1        1.0  0.8673211584420756  0.26014403942389897  0.6442122606383216  1.0000
  O   O2        1.0  0.6494721913985374  0.47192902206310466  0.37924994205512097  1.0000
  O   O3        1.0  0.2876693737519771  0.6456953278344643  0.39267538562335946  1.0000
  O   O4        1.0  0.41015870850344066  0.28092498794086596  0.19911754809826973  1.0000
  O   O5        1.0  0.6000242080563856  0.5115070416779596  0.8075904298285903  1.0000
  O   O6        1.0  0.16107529649367502  0.35624885875877293  0.4892956145852338  1.0000
  O   O7        1.0  0.2532103516021561  0.7515087859720128  0.7175911580483659  1.0000
  O   O8        1.0  0.5971135573115034  0.7693015991156003  0.15018923025913294  1.0000
  O   O9        1.0  0.5654891317639283  0.18179718029338365  0.5028709958172373  1.0000
  O   O10       1.0  0.9430638190620926  0.6578956679468699  0.5941646111282247  1.0000
  O   O11       1.0  0.7541380146695292  0.11112720403994829  0.9111414162469896  1.0000
  O   O12       1.0  0.9590213017260654  0.9113693575211078  0.27877088711702275  1.0000
  O   O13       1.0  0.9203185706679955  0.8258236272928502  0.9417717321936304  1.0000
  O   O14       1.0  0.11177752320510895  0.4563232024923668  0.847715784967054  1.0000
  O   O15       1.0  0.43424759165727195  0.2118864233394087  0.8581385988093031  1.0000
  O   O16       1.0  0.8667365430682482  0.5213206485901203  0.1335067268171681  1.0000
data_image44
_chemical_formula_structural       Sn4W4O16
_chemical_formula_sum              "Sn4 W4 O16"
_cell_length_a       7.620549
_cell_length_b       7.620549
_cell_length_c       7.620549
_cell_angle_alpha    90.0
_cell_angle_beta     90.0
_cell_angle_gamma    90.0

_space_group_name_H-M_alt    "P 1"
_space_group_IT_number       1

loop_
  _space_group_symop_operation_xyz
  'x, y, z'

loop_
  _atom_site_type_symbol
  _atom_site_label
  _atom_site_symmetry_multiplicity
  _atom_site_fract_x
  _atom_site_fract_y
  _atom_site_fract_z
  _atom_site_occupancy
  Sn  Sn1       1.0  0.6426516593111564  0.7567886147738807  0.6244330975648098  1.0000
  Sn  Sn2       1.0  0.8902521070043089  0.2625165683354614  0.3953205493661506  1.0000
  Sn  Sn3       1.0  0.3061264354001914  0.7906542206275293  0.16211008416182046  1.0000
  Sn  Sn4       1.0  0.0652051222598648  0.19022791423536503  0.8921729019068002  1.0000
  W   W1        1.0  0.4257166765912388  0.3911480671653698  0.3701274774630814  1.0000
  W   W2        1.0  0.16534476252637864  0.5712042681770055  0.6406532071315127  1.0000
  W   W3        1.0  0.6254348422958277  0.2699338981737872  0.8115466308075775  1.0000
  W   W4        1.0  0.8249450554090453  0.748289620516011  0.1371582815010368  1.0000
  O   O1        1.0  0.8111501008368298  0.16082435962269268  0.7102315327471587  1.0000
  O   O2        1.0  0.5931852338311074  0.5727753127483028  0.40241085184966985  1.0000
  O   O3        1.0  0.23472809232145606  0.5908783293378876  0.3771014960178752  1.0000
  O   O4        1.0  0.3394408272263207  0.38589649999499254  0.14683811779196698  1.0000
  O   O5        1.0  0.5851434123016659  0.49356639992949397  0.7683465053314703  1.0000
  O   O6        1.0  0.26404562342667526  0.33848863273180135  0.5548148966407939  1.0000
  O   O7        1.0  0.3547982958593455  0.695155409102955  0.6795937040449036  1.0000
  O   O8        1.0  0.6127974522230282  0.8778442608114848  0.1947677229695504  1.0000
  O   O9        1.0  0.5352637077068564  0.20979808668556452  0.45757806742046414  1.0000
  O   O10       1.0  0.9581723155717933  0.7005713313887482  0.6264455955724924  1.0000
  O   O11       1.0  0.7482717286727869  0.2508211132378623  0.005224894196078189  1.0000
  O   O12       1.0  0.9936189645584981  0.9044630327311651  0.15863671019542072  1.0000
  O   O13       1.0  0.8041528047184685  0.7990714199663539  0.9033369756422226  1.0000
  O   O14       1.0  0.06775881985775563  0.4687620697511113  0.8480182882493685  1.0000
  O   O15       1.0  0.44131798461281013  0.12258984586028716  0.8337566955513331  1.0000
  O   O16       1.0  0.8619595407988829  0.5312867637603776  0.2371525076220345  1.0000
data_image45
_chemical_formula_structural       Sn4W4O16
_chemical_formula_sum              "Sn4 W4 O16"
_cell_length_a       7.620549
_cell_length_b       7.620549
_cell_length_c       7.620549
_cell_angle_alpha    90.0
_cell_angle_beta     90.0
_cell_angle_gamma    90.0

_space_group_name_H-M_alt    "P 1"
_space_group_IT_number       1

loop_
  _space_group_symop_operation_xyz
  'x, y, z'

loop_
  _atom_site_type_symbol
  _atom_site_label
  _atom_site_symmetry_multiplicity
  _atom_site_fract_x
  _atom_site_fract_y
  _atom_site_fract_z
  _atom_site_occupancy
  Sn  Sn1       1.0  0.6342673026398962  0.7410879000293724  0.6173872874143033  1.0000
  Sn  Sn2       1.0  0.8978756362550094  0.2873587907582907  0.3968707944357936  1.0000
  Sn  Sn3       1.0  0.35972580269307475  0.8015707773465599  0.23967024750432567  1.0000
  Sn  Sn4       1.0  0.044797376249628616  0.1414526294384765  0.9358385594463671  1.0000
  W   W1        1.0  0.43312131620290883  0.37308760529277635  0.35858530769660757  1.0000
  W   W2        1.0  0.10717422270033146  0.614897756374196  0.5996805868565287  1.0000
  W   W3        1.0  0.6388842378344487  0.2537074172108167  0.8414117435206538  1.0000
  W   W4        1.0  0.8406483679771684  0.7611381715278794  0.11261310520882811  1.0000
  O   O1        1.0  0.8652898317602846  0.11865472057226359  0.7409359488632175  1.0000
  O   O2        1.0  0.5002748713845573  0.623728644087609  0.4060370980427288  1.0000
  O   O3        1.0  0.2082182665330233  0.6523971793317741  0.3698226602159264  1.0000
  O   O4        1.0  0.37908737806320236  0.34037207029181027  0.13571986921029247  1.0000
  O   O5        1.0  0.6176710032888513  0.4514310952869196  0.6767662264174132  1.0000
  O   O6        1.0  0.23251866947918942  0.2694866511145952  0.4852874135302883  1.0000
  O   O7        1.0  0.22597503544880246  0.734130511034143  0.7552025035055303  1.0000
  O   O8        1.0  0.6492138739853337  0.9139794475048774  0.19200487063597857  1.0000
  O   O9        1.0  0.6255514158186638  0.25118328075661944  0.4140528496884115  1.0000
  O   O10       1.0  0.8887872938244661  0.6909497059502495  0.600824097357184  1.0000
  O   O11       1.0  0.780619716222655  0.285198329264361  0.030331835005040553  1.0000
  O   O12       1.0  0.019386784955565117  0.9453273770680178  0.12539322612004722  1.0000
  O   O13       1.0  0.7865068746380998  0.7417333559243341  0.8955348147022649  1.0000
  O   O14       1.0  0.07884385328982933  0.4199823366689481  0.7356840432034708  1.0000
  O   O15       1.0  0.4733508492313861  0.05820574539863467  0.8099565206675067  1.0000
  O   O16       1.0  0.8742354271989479  0.558326807214942  0.240499564005038  1.0000
data_image46
_chemical_formula_structural       Sn4W4O16
_chemical_formula_sum              "Sn4 W4 O16"
_cell_length_a       7.620549
_cell_length_b       7.620549
_cell_length_c       7.620549
_cell_angle_alpha    90.0
_cell_angle_beta     90.0
_cell_angle_gamma    90.0

_space_group_name_H-M_alt    "P 1"
_space_group_IT_number       1

loop_
  _space_group_symop_operation_xyz
  'x, y, z'

loop_
  _atom_site_type_symbol
  _atom_site_label
  _atom_site_symmetry_multiplicity
  _atom_site_fract_x
  _atom_site_fract_y
  _atom_site_fract_z
  _atom_site_occupancy
  Sn  Sn1       1.0  0.6210061341983871  0.7631009701277399  0.6663833048063842  1.0000
  Sn  Sn2       1.0  0.8931336484257227  0.2577745699281843  0.32846127335889147  1.0000
  Sn  Sn3       1.0  0.39504312047413204  0.8206016759550664  0.2962072921749738  1.0000
  Sn  Sn4       1.0  0.0965889382967306  0.09971918540333274  0.8520285219133408  1.0000
  W   W1        1.0  0.4523064423813644  0.35843280236887637  0.34270318873378214  1.0000
  W   W2        1.0  0.06553861151005394  0.6724631946452906  0.567628204577413  1.0000
  W   W3        1.0  0.6407259312229516  0.26141183599426254  0.860699666432722  1.0000
  W   W4        1.0  0.8308416720826848  0.7300412074194889  0.1551558962684201  1.0000
  O   O1        1.0  0.8052474759541721  0.05827982812877636  0.7805814488113292  1.0000
  O   O2        1.0  0.5659031022631117  0.605556501967676  0.45753107005180316  1.0000
  O   O3        1.0  0.25611261487925413  0.5900767101191343  0.43317058019632415  1.0000
  O   O4        1.0  0.4071359388590438  0.3958097860930012  0.11608122513610987  1.0000
  O   O5        1.0  0.5729578531134043  0.45731159982721103  0.72266686412804  1.0000
  O   O6        1.0  0.2403458896316677  0.2559130496163831  0.3842771603973404  1.0000
  O   O7        1.0  0.14536281581987098  0.8002846238151904  0.7392013014178638  1.0000
  O   O8        1.0  0.6258285070298948  0.883626381763423  0.17609124581032073  1.0000
  O   O9        1.0  0.6286048445495276  0.21868124570915196  0.38097534079167167  1.0000
  O   O10       1.0  0.8523310245024002  0.8412592607569366  0.5015780271306437  1.0000
  O   O11       1.0  0.7754491539217067  0.22975559798057282  0.08732419227236154  1.0000
  O   O12       1.0  0.010504951047820121  0.8817590334009642  0.17391747181202857  1.0000
  O   O13       1.0  0.8147212630443612  0.6417098569133988  0.9266647836265431  1.0000
  O   O14       1.0  0.9850988498195333  0.4991309176229159  0.6881424982934102  1.0000
  O   O15       1.0  0.46559429021889664  0.1552786427698095  0.949597399976205  1.0000
  O   O16       1.0  0.8744966717486516  0.5387441479203721  0.2907696482865769  1.0000
data_image47
_chemical_formula_structural       Sn4W4O16
_chemical_formula_sum              "Sn4 W4 O16"
_cell_length_a       7.620549
_cell_length_b       7.620549
_cell_length_c       7.620549
_cell_angle_alpha    90.0
_cell_angle_beta     90.0
_cell_angle_gamma    90.0

_space_group_name_H-M_alt    "P 1"
_space_group_IT_number       1

loop_
  _space_group_symop_operation_xyz
  'x, y, z'

loop_
  _atom_site_type_symbol
  _atom_site_label
  _atom_site_symmetry_multiplicity
  _atom_site_fract_x
  _atom_site_fract_y
  _atom_site_fract_z
  _atom_site_occupancy
  Sn  Sn1       1.0  0.6538465525738069  0.7697635643462483  0.7178006455855267  1.0000
  Sn  Sn2       1.0  0.9203045473972536  0.22594804778095476  0.2747267338681353  1.0000
  Sn  Sn3       1.0  0.3936201276617731  0.8231101107071068  0.28495317638896234  1.0000
  Sn  Sn4       1.0  0.1485192049284005  0.11314617936110646  0.8263916240935915  1.0000
  W   W1        1.0  0.4521540504754963  0.4064838031528017  0.3661975567840022  1.0000
  W   W2        1.0  0.025532810046138093  0.6323887781296412  0.555614777704772  1.0000
  W   W3        1.0  0.6135215427777276  0.230196886310853  0.8838926834392659  1.0000
  W   W4        1.0  0.8247635350509035  0.7435138191649241  0.1693720794263919  1.0000
  O   O1        1.0  0.7414925106310442  0.08035076750397403  0.6897438810159227  1.0000
  O   O2        1.0  0.5239618814020222  0.6162445740226219  0.4901864113632326  1.0000
  O   O3        1.0  0.24210011008776453  0.5827199912246345  0.4329878707238076  1.0000
  O   O4        1.0  0.5351128207755211  0.4270316554657996  0.1430944914755264  1.0000
  O   O5        1.0  0.5853825014449774  0.4187182207830517  0.7630751964292298  1.0000
  O   O6        1.0  0.266325689901715  0.26297686567638884  0.28756540058669633  1.0000
  O   O7        1.0  0.1211662652501099  0.7566496776976905  0.7313218541807773  1.0000
  O   O8        1.0  0.6250213259977533  0.915286279379821  0.19368179478026687  1.0000
  O   O9        1.0  0.6586590847882838  0.2970631937428884  0.4156767626676101  1.0000
  O   O10       1.0  0.9185279303805459  0.851287714519928  0.4602562917973888  1.0000
  O   O11       1.0  0.8201102151850119  0.2044872899410679  0.0255779552947617  1.0000
  O   O12       1.0  0.9324336152108996  0.9363623486898245  0.07367224215756452  1.0000
  O   O13       1.0  0.786091368091766  0.6711693521462841  0.9414483491450403  1.0000
  O   O14       1.0  0.9277189716288087  0.4703620502742278  0.70378919771475  1.0000
  O   O15       1.0  0.40158602190716514  0.12507886116611053  0.8902275167448853  1.0000
  O   O16       1.0  0.9770993884237029  0.6060636722547936  0.27407015866803863  1.0000
data_image48
_chemical_formula_structural       Sn4W4O16
_chemical_formula_sum              "Sn4 W4 O16"
_cell_length_a       7.620549
_cell_length_b       7.620549
_cell_length_c       7.620549
_cell_angle_alpha    90.0
_cell_angle_beta     90.0
_cell_angle_gamma    90.0

_space_group_name_H-M_alt    "P 1"
_space_group_IT_number       1

loop_
  _space_group_symop_operation_xyz
  'x, y, z'

loop_
  _atom_site_type_symbol
  _atom_site_label
  _atom_site_symmetry_multiplicity
  _atom_site_fract_x
  _atom_site_fract_y
  _atom_site_fract_z
  _atom_site_occupancy
  Sn  Sn1       1.0  0.6313611894781321  0.7370277537508816  0.7173562015883728  1.0000
  Sn  Sn2       1.0  0.9289228713526595  0.2056444783186239  0.2777145243933258  1.0000
  Sn  Sn3       1.0  0.37296720669281364  0.8377162156885612  0.3264987052877282  1.0000
  Sn  Sn4       1.0  0.10853325301787817  0.10946096829115277  0.8194410129274446  1.0000
  W   W1        1.0  0.4735704458500196  0.3989967428033813  0.36956534808188657  1.0000
  W   W2        1.0  0.03639158473717385  0.6338064420441013  0.5284217071509233  1.0000
  W   W3        1.0  0.6165209337139153  0.2018657397132677  0.8701059111182498  1.0000
  W   W4        1.0  0.8521175848184297  0.8066109578240516  0.19103013815667733  1.0000
  O   O1        1.0  0.5238195550498786  0.06408032771005895  0.6883212969122097  1.0000
  O   O2        1.0  0.5453033421402784  0.6325026686068512  0.4537863116146432  1.0000
  O   O3        1.0  0.23389000190393955  0.5594922691942462  0.3924608962028568  1.0000
  O   O4        1.0  0.40865965400169313  0.48213238812212467  0.16325894028371465  1.0000
  O   O5        1.0  0.5568209720574961  0.4381190625328364  0.8308104937583514  1.0000
  O   O6        1.0  0.3421569027442455  0.22328803926033355  0.48068788163941656  1.0000
  O   O7        1.0  0.11852583734125839  0.7620978480219696  0.7244345758185089  1.0000
  O   O8        1.0  0.677594845864286  0.948473048214411  0.18241981209199296  1.0000
  O   O9        1.0  0.6704443094849735  0.2692697153249248  0.3707291573272084  1.0000
  O   O10       1.0  0.903162209806502  0.8306236968885814  0.45906468963858393  1.0000
  O   O11       1.0  0.8546580761437745  0.15380931728793995  0.8505873180828718  1.0000
  O   O12       1.0  0.05619979103435124  0.8976523094919012  0.07951005869687698  1.0000
  O   O13       1.0  0.7082914896174561  0.8079491406268995  0.9594897802911828  1.0000
  O   O14       1.0  0.9289805045676718  0.43858979142004223  0.5635820866131402  1.0000
  O   O15       1.0  0.4475772136702015  0.12729818660098347  0.016592373420010853  1.0000
  O   O16       1.0  0.9045288201577766  0.5651110834416206  0.20968897266222286  1.0000
data_image49
_chemical_formula_structural       Sn4W4O16
_chemical_formula_sum              "Sn4 W4 O16"
_cell_length_a       7.620549
_cell_length_b       7.620549
_cell_length_c       7.620549
_cell_angle_alpha    90.0
_cell_angle_beta     90.0
_cell_angle_gamma    90.0

_space_group_name_H-M_alt    "P 1"
_space_group_IT_number       1

loop_
  _space_group_symop_operation_xyz
  'x, y, z'

loop_
  _atom_site_type_symbol
  _atom_site_label
  _atom_site_symmetry_multiplicity
  _atom_site_fract_x
  _atom_site_fract_y
  _atom_site_fract_z
  _atom_site_occupancy
  Sn  Sn1       1.0  0.6238178901259905  0.7282565826801306  0.6943600156022589  1.0000
  Sn  Sn2       1.0  0.9080415657951147  0.3131414925883965  0.33080692440679094  1.0000
  Sn  Sn3       1.0  0.404455313935911  0.8837902595817653  0.3754024916128582  1.0000
  Sn  Sn4       1.0  0.13470060524635172  0.06502724969759853  0.8611868386604586  1.0000
  W   W1        1.0  0.43997369781471435  0.374907817054181  0.3644096877781589  1.0000
  W   W2        1.0  0.048854518637496194  0.6705340399007622  0.5463989371063801  1.0000
  W   W3        1.0  0.5894024232173333  0.16319447977958187  0.8290415148175377  1.0000
  W   W4        1.0  0.8745473069874246  0.7846968627076905  0.1312662998986948  1.0000
  O   O1        1.0  0.6113361182901319  0.9964579795245715  0.6161384618280219  1.0000
  O   O2        1.0  0.5294792407924055  0.6653358255145307  0.4493950692080051  1.0000
  O   O3        1.0  0.2545354088634971  0.6246620881026375  0.385632134719126  1.0000
  O   O4        1.0  0.455165707525081  0.3183781081211432  0.14285464730577238  1.0000
  O   O5        1.0  0.524398930996797  0.3934009039366847  0.764309341402133  1.0000
  O   O6        1.0  0.252599768132155  0.26575873199148714  0.48000164788558575  1.0000
  O   O7        1.0  0.1318841687633061  0.7974341303642402  0.7700949019859594  1.0000
  O   O8        1.0  0.6955776490223251  0.9016957678369031  0.20677120872070076  1.0000
  O   O9        1.0  0.6255151065069857  0.2756228209023413  0.46499265554139557  1.0000
  O   O10       1.0  0.9481901874943484  0.8709904096073163  0.5219543012235722  1.0000
  O   O11       1.0  0.7973804368441505  0.17783979930333302  0.9035343706201783  1.0000
  O   O12       1.0  0.06577331945475273  0.9215501955673359  0.10798448332782137  1.0000
  O   O13       1.0  0.788002648352269  0.7016870634675755  0.8994479305887247  1.0000
  O   O14       1.0  0.8907166898644306  0.4759792015312603  0.5761125219540684  1.0000
  O   O15       1.0  0.4543790586096112  0.022075499570638504  0.9584445528427277  1.0000
  O   O16       1.0  0.9426632857767614  0.6120771659843396  0.2842851753167852  1.0000
data_image50
_chemical_formula_structural       Sn4W4O16
_chemical_formula_sum              "Sn4 W4 O16"
_cell_length_a       7.620549
_cell_length_b       7.620549
_cell_length_c       7.620549
_cell_angle_alpha    90.0
_cell_angle_beta     90.0
_cell_angle_gamma    90.0

_space_group_name_H-M_alt    "P 1"
_space_group_IT_number       1

loop_
  _space_group_symop_operation_xyz
  'x, y, z'

loop_
  _atom_site_type_symbol
  _atom_site_label
  _atom_site_symmetry_multiplicity
  _atom_site_fract_x
  _atom_site_fract_y
  _atom_site_fract_z
  _atom_site_occupancy
  Sn  Sn1       1.0  0.6195526796497501  0.6590624057552738  0.693064440517286  1.0000
  Sn  Sn2       1.0  0.8942995448871294  0.32503888652639856  0.3657708933226818  1.0000
  Sn  Sn3       1.0  0.4322845925902356  0.8833072401804817  0.34760627096714314  1.0000
  Sn  Sn4       1.0  0.15200458609182413  0.08829309248915222  0.8605142211131522  1.0000
  W   W1        1.0  0.41616340903128385  0.39887020490947334  0.3548198536022133  1.0000
  W   W2        1.0  0.09711285405184653  0.6876799805695095  0.5870516472433913  1.0000
  W   W3        1.0  0.5216671687548972  0.12535790579219067  0.8338023876837213  1.0000
  W   W4        1.0  0.8910574940995313  0.8042253054326872  0.12472744135952533  1.0000
  O   O1        1.0  0.6539689892339329  0.955601199121799  0.6864384017549076  1.0000
  O   O2        1.0  0.5805649433772245  0.6579739866911677  0.42293247768246034  1.0000
  O   O3        1.0  0.20440441505457582  0.5752072740186177  0.3960399917327358  1.0000
  O   O4        1.0  0.39587025895513644  0.4123759249946257  0.13347041600337262  1.0000
  O   O5        1.0  0.44156084392137424  0.3528673108333455  0.7910100054642892  1.0000
  O   O6        1.0  0.3153495454173971  0.18739956594661808  0.39827049815137683  1.0000
  O   O7        1.0  0.31485633238639343  0.7939852771619893  0.6438049980094086  1.0000
  O   O8        1.0  0.6748134415684793  0.9136727603991152  0.10327984609611653  1.0000
  O   O9        1.0  0.6369223458194594  0.3326301056218499  0.43433613660165105  1.0000
  O   O10       1.0  0.9506010471608025  0.8687684884666853  0.4821919066281564  1.0000
  O   O11       1.0  0.6954514725933945  0.23575935511821625  0.950440967852075  1.0000
  O   O12       1.0  0.03838509193198614  0.9851287093932497  0.092200634137718  1.0000
  O   O13       1.0  0.9886598574825141  0.76025720357872  0.828035840611089  1.0000
  O   O14       1.0  0.9481633585198369  0.4801358819649715  0.6074364335255611  1.0000
  O   O15       1.0  0.3511231063581987  0.9557045400461595  0.9503392657797232  1.0000
  O   O16       1.0  0.8783365016631097  0.5583021645610037  0.23061701322427983  1.0000
data_image51
_chemical_formula_structural       Sn4W4O16
_chemical_formula_sum              "Sn4 W4 O16"
_cell_length_a       7.620549
_cell_length_b       7.620549
_cell_length_c       7.620549
_cell_angle_alpha    90.0
_cell_angle_beta     90.0
_cell_angle_gamma    90.0

_space_group_name_H-M_alt    "P 1"
_space_group_IT_number       1

loop_
  _space_group_symop_operation_xyz
  'x, y, z'

loop_
  _atom_site_type_symbol
  _atom_site_label
  _atom_site_symmetry_multiplicity
  _atom_site_fract_x
  _atom_site_fract_y
  _atom_site_fract_z
  _atom_site_occupancy
  Sn  Sn1       1.0  0.6152618824094486  0.6081986384970881  0.6958641220968563  1.0000
  Sn  Sn2       1.0  0.8953524858185244  0.38296172480067775  0.34856943091316595  1.0000
  Sn  Sn3       1.0  0.5087971501313029  0.8784325577047125  0.37302544672550153  1.0000
  Sn  Sn4       1.0  0.08862614146225394  0.07045712193009948  0.8515224438992164  1.0000
  W   W1        1.0  0.42531524840876783  0.4134891912609989  0.3812829654999521  1.0000
  W   W2        1.0  0.05808128696540364  0.7368734700643339  0.5961714194589522  1.0000
  W   W3        1.0  0.521865860557762  0.10730392277838133  0.8163654330710808  1.0000
  W   W4        1.0  0.9262668723524141  0.7896075911649459  0.11277984677753015  1.0000
  O   O1        1.0  0.6192521789482941  0.9379699385913989  0.6424089450495721  1.0000
  O   O2        1.0  0.5991136766760639  0.6008311378259829  0.4000527153981257  1.0000
  O   O3        1.0  0.2143815740385355  0.5152724794213841  0.5148246582645016  1.0000
  O   O4        1.0  0.43871344885374297  0.4543359819062269  0.16388860453899856  1.0000
  O   O5        1.0  0.3834784674393909  0.24107574619751385  0.6986786767194433  1.0000
  O   O6        1.0  0.2819141698327061  0.2034808106869433  0.359483381451758  1.0000
  O   O7        1.0  0.2743847568852514  0.8278519041851697  0.6647422583565341  1.0000
  O   O8        1.0  0.6943071855709717  0.8193597791316491  0.12809081913096346  1.0000
  O   O9        1.0  0.5935573044498023  0.2542776821266391  0.4360472664459285  1.0000
  O   O10       1.0  0.9932544025478209  0.7886776267734386  0.3595346226464916  1.0000
  O   O11       1.0  0.6687815544011172  0.1754512424545661  0.9816153633494534  1.0000
  O   O12       1.0  0.9646541540502045  0.028534674503298607  0.09800416645995198  1.0000
  O   O13       1.0  0.01635441242643898  0.8022952655596618  0.8507935395107973  1.0000
  O   O14       1.0  0.9028621847986161  0.5512628644214179  0.6948917129901544  1.0000
  O   O15       1.0  0.3707979326109272  0.014073732025983046  0.999628297115816  1.0000
  O   O16       1.0  0.9355304718850722  0.5506655172752574  0.09325611792459688  1.0000
data_image52
_chemical_formula_structural       Sn4W4O16
_chemical_formula_sum              "Sn4 W4 O16"
_cell_length_a       7.620549
_cell_length_b       7.620549
_cell_length_c       7.620549
_cell_angle_alpha    90.0
_cell_angle_beta     90.0
_cell_angle_gamma    90.0

_space_group_name_H-M_alt    "P 1"
_space_group_IT_number       1

loop_
  _space_group_symop_operation_xyz
  'x, y, z'

loop_
  _atom_site_type_symbol
  _atom_site_label
  _atom_site_symmetry_multiplicity
  _atom_site_fract_x
  _atom_site_fract_y
  _atom_site_fract_z
  _atom_site_occupancy
  Sn  Sn1       1.0  0.6196165268006483  0.6079126568914248  0.7756209633755106  1.0000
  Sn  Sn2       1.0  0.9111763414625034  0.39106262978939016  0.34772333861402854  1.0000
  Sn  Sn3       1.0  0.5463109794865089  0.8864273856443969  0.35245597011187974  1.0000
  Sn  Sn4       1.0  0.08952178632933364  0.09931551102292611  0.8390145198683573  1.0000
  W   W1        1.0  0.40195402874863545  0.3801949221264498  0.38766186229433097  1.0000
  W   W2        1.0  0.06296436815324788  0.7070993830040848  0.5866773494344709  1.0000
  W   W3        1.0  0.5249526518128524  0.10630094116298257  0.8084650819973359  1.0000
  W   W4        1.0  0.9097664063152328  0.7915677587351956  0.08883060003087576  1.0000
  O   O1        1.0  0.6287703155034846  0.911555565391761  0.741532423067073  1.0000
  O   O2        1.0  0.630539228234442  0.6054609327342562  0.5127338369190022  1.0000
  O   O3        1.0  0.24927390959179255  0.523480883835013  0.558216439902647  1.0000
  O   O4        1.0  0.4111125170588538  0.5783109721361661  0.27834613563127164  1.0000
  O   O5        1.0  0.44149971012947564  0.22007113457649252  0.6336357449194847  1.0000
  O   O6        1.0  0.2087145265875192  0.27882415464623106  0.30609219163258405  1.0000
  O   O7        1.0  0.20125376812834622  0.8987377985376556  0.6534838051960656  1.0000
  O   O8        1.0  0.6493086940285211  0.781721113877489  0.10051284742699254  1.0000
  O   O9        1.0  0.5958147179918185  0.31631424931542096  0.24051475091038696  1.0000
  O   O10       1.0  0.9389626809528974  0.7837936998507418  0.4057444125849096  1.0000
  O   O11       1.0  0.7161842495588245  0.2367185686195168  0.8888079494943465  1.0000
  O   O12       1.0  0.9458763418820061  0.051748701213488735  0.1587914790757759  1.0000
  O   O13       1.0  0.9278622212021468  0.7438445692846893  0.8517484795164556  1.0000
  O   O14       1.0  0.9257597572055928  0.5046298964578494  0.6316064074707147  1.0000
  O   O15       1.0  0.37755118485641465  0.08832354192886425  0.9982524055056786  1.0000
  O   O16       1.0  0.04698289399690747  0.613522730145429  0.17387853770614503  1.0000
data_image53
_chemical_formula_structural       Sn4W4O16
_chemical_formula_sum              "Sn4 W4 O16"
_cell_length_a       7.620549
_cell_length_b       7.620549
_cell_length_c       7.620549
_cell_angle_alpha    90.0
_cell_angle_beta     90.0
_cell_angle_gamma    90.0

_space_group_name_H-M_alt    "P 1"
_space_group_IT_number       1

loop_
  _space_group_symop_operation_xyz
  'x, y, z'

loop_
  _atom_site_type_symbol
  _atom_site_label
  _atom_site_symmetry_multiplicity
  _atom_site_fract_x
  _atom_site_fract_y
  _atom_site_fract_z
  _atom_site_occupancy
  Sn  Sn1       1.0  0.6130888260596349  0.602409968924339  0.7964750971605683  1.0000
  Sn  Sn2       1.0  0.9138182395798898  0.355862583088075  0.360729003773949  1.0000
  Sn  Sn3       1.0  0.4469443167609042  0.846303124296881  0.3317591935755307  1.0000
  Sn  Sn4       1.0  0.09870244030340398  0.09440368032840825  0.8050954324933182  1.0000
  W   W1        1.0  0.424485577465895  0.4226947115948894  0.37321672143914764  1.0000
  W   W2        1.0  0.10718558738499492  0.686278408752763  0.6446024467425308  1.0000
  W   W3        1.0  0.5368820862662566  0.14296191458981622  0.7965105024204769  1.0000
  W   W4        1.0  0.8909569646506023  0.7896207602419427  0.07779191763610548  1.0000
  O   O1        1.0  0.5984194762097379  0.923832860199251  0.7584776403812497  1.0000
  O   O2        1.0  0.6396696214784524  0.5084271930650507  0.49195150052252834  1.0000
  O   O3        1.0  0.2954720674478296  0.5324383463865511  0.5762218318124448  1.0000
  O   O4        1.0  0.4072399157425709  0.6060055537192766  0.20491517056386888  1.0000
  O   O5        1.0  0.4383757079402291  0.19433680917353024  0.5937666238590577  1.0000
  O   O6        1.0  0.17691856351138568  0.3465451760327349  0.3293235941954878  1.0000
  O   O7        1.0  0.24281633141789097  0.8324851517304228  0.7493403887938965  1.0000
  O   O8        1.0  0.6698352575572399  0.9198037670478998  0.11003929057668363  1.0000
  O   O9        1.0  0.48394247409691243  0.25071264451806957  0.24948706459615852  1.0000
  O   O10       1.0  0.017688224433326585  0.8300997129429035  0.48902846544223055  1.0000
  O   O11       1.0  0.7327849997409649  0.34104992892395897  0.8071209125130545  1.0000
  O   O12       1.0  0.09367023381426653  0.9305838317385062  0.05785369277557339  1.0000
  O   O13       1.0  0.8721497802843278  0.6682057899492824  0.8623353553263169  1.0000
  O   O14       1.0  0.9904729105781676  0.46594299332640976  0.6231405743068521  1.0000
  O   O15       1.0  0.3713666975201957  0.17775587124824296  0.9371258277128548  1.0000
  O   O16       1.0  0.8680996340275946  0.5965358852849562  0.22553384630069132  1.0000
data_image54
_chemical_formula_structural       Sn4W4O16
_chemical_formula_sum              "Sn4 W4 O16"
_cell_length_a       7.620549
_cell_length_b       7.620549
_cell_length_c       7.620549
_cell_angle_alpha    90.0
_cell_angle_beta     90.0
_cell_angle_gamma    90.0

_space_group_name_H-M_alt    "P 1"
_space_group_IT_number       1

loop_
  _space_group_symop_operation_xyz
  'x, y, z'

loop_
  _atom_site_type_symbol
  _atom_site_label
  _atom_site_symmetry_multiplicity
  _atom_site_fract_x
  _atom_site_fract_y
  _atom_site_fract_z
  _atom_site_occupancy
  Sn  Sn1       1.0  0.6094255231242875  0.5759211188087503  0.7803817282560629  1.0000
  Sn  Sn2       1.0  0.8498657202005091  0.2854590704312262  0.3704216331005227  1.0000
  Sn  Sn3       1.0  0.39372602680080354  0.8933626827886746  0.2938016856902432  1.0000
  Sn  Sn4       1.0  0.11560122260726653  0.08783063879324447  0.7721938258251486  1.0000
  W   W1        1.0  0.4061599772161734  0.4298920575421129  0.3836525267890175  1.0000
  W   W2        1.0  0.12485261230792578  0.681792229433137  0.6590192188357809  1.0000
  W   W3        1.0  0.5691742607848845  0.17521778726481757  0.7781104088604192  1.0000
  W   W4        1.0  0.8990637458829367  0.7779201074568779  0.1066197252762841  1.0000
  O   O1        1.0  0.6485151538318239  0.9461444080598505  0.7495551744323048  1.0000
  O   O2        1.0  0.632565200062355  0.5301132814876067  0.47624403004903804  1.0000
  O   O3        1.0  0.31837934867495005  0.5319635803193854  0.5973059732168533  1.0000
  O   O4        1.0  0.37300627767899697  0.6310743799319103  0.2563462866844701  1.0000
  O   O5        1.0  0.44160636897364397  0.24531395462351427  0.5514828267890854  1.0000
  O   O6        1.0  0.1990126836720958  0.3131603757788672  0.2847124787235857  1.0000
  O   O7        1.0  0.23577443749057558  0.8248895015390009  0.8212344035519328  1.0000
  O   O8        1.0  0.6866976711665667  0.8571420196322543  0.1821426992206502  1.0000
  O   O9        1.0  0.5919582554279994  0.382639411199782  0.23875743659162477  1.0000
  O   O10       1.0  0.1233343262588718  0.8394031902778123  0.49454611558603206  1.0000
  O   O11       1.0  0.749679968632212  0.2738633601926629  0.9244081146645834  1.0000
  O   O12       1.0  0.08471725492387927  0.9073700227379116  0.14382226078173108  1.0000
  O   O13       1.0  0.8829056113369221  0.7533487318615604  0.8503458360548016  1.0000
  O   O14       1.0  0.9519434333678412  0.5180986054956248  0.603537723407671  1.0000
  O   O15       1.0  0.35830663951576375  0.17430161488599813  0.8804922962116081  1.0000
  O   O16       1.0  0.9410924689743941  0.5685910709806872  0.17169143977188595  1.0000
data_image55
_chemical_formula_structural       Sn4W4O16
_chemical_formula_sum              "Sn4 W4 O16"
_cell_length_a       7.620549
_cell_length_b       7.620549
_cell_length_c       7.620549
_cell_angle_alpha    90.0
_cell_angle_beta     90.0
_cell_angle_gamma    90.0

_space_group_name_H-M_alt    "P 1"
_space_group_IT_number       1

loop_
  _space_group_symop_operation_xyz
  'x, y, z'

loop_
  _atom_site_type_symbol
  _atom_site_label
  _atom_site_symmetry_multiplicity
  _atom_site_fract_x
  _atom_site_fract_y
  _atom_site_fract_z
  _atom_site_occupancy
  Sn  Sn1       1.0  0.6841114178497436  0.5853876099705599  0.7886406797849557  1.0000
  Sn  Sn2       1.0  0.8390362683823873  0.2947439313510387  0.29834439071406355  1.0000
  Sn  Sn3       1.0  0.368865851175717  0.9344879498315122  0.21621925087431595  1.0000
  Sn  Sn4       1.0  0.1564985175616806  0.0625415934333535  0.7856550731039432  1.0000
  W   W1        1.0  0.42233323486216595  0.41670222115001343  0.3481665549668242  1.0000
  W   W2        1.0  0.1290527319005969  0.6836589741532969  0.6517201903118479  1.0000
  W   W3        1.0  0.5257039030633395  0.18778427043560594  0.7954542404173902  1.0000
  W   W4        1.0  0.9123480689608074  0.7485384680098048  0.17467385860104898  1.0000
  O   O1        1.0  0.5168513488705345  0.9633107874698442  0.7945807745688788  1.0000
  O   O2        1.0  0.6124678650132385  0.5584059135314288  0.45074444338892405  1.0000
  O   O3        1.0  0.31103201162488764  0.5380853006693913  0.6185406958575774  1.0000
  O   O4        1.0  0.31469399806618703  0.6318627363843663  0.275862020202519  1.0000
  O   O5        1.0  0.4984382936779552  0.25907177750659294  0.573081569915046  1.0000
  O   O6        1.0  0.22340997339108193  0.24111859014996062  0.30520572720459055  1.0000
  O   O7        1.0  0.14178929969640008  0.7786589920750367  0.8723449827642971  1.0000
  O   O8        1.0  0.7524975885187823  0.896068399500375  0.27986155308670363  1.0000
  O   O9        1.0  0.5532136457070262  0.2954899813968834  0.19616725189491815  1.0000
  O   O10       1.0  0.07017227105297587  0.8793423138409584  0.5311337701515784  1.0000
  O   O11       1.0  0.743717005170111  0.3056672810139542  0.7894036281302912  1.0000
  O   O12       1.0  0.08954377967848215  0.9146391683441436  0.18579225321813872  1.0000
  O   O13       1.0  0.7347164246458984  0.7423066520573863  0.9977175535881254  1.0000
  O   O14       1.0  0.9233054523255946  0.6033064243218743  0.6225848408195542  1.0000
  O   O15       1.0  0.30957158311014765  0.2459888461949893  0.8966736422707158  1.0000
  O   O16       1.0  0.9584334366609878  0.5325161037381888  0.29712492754434483  1.0000
data_image56
_chemical_formula_structural       Sn4W4O16
_chemical_formula_sum              "Sn4 W4 O16"
_cell_length_a       7.620549
_cell_length_b       7.620549
_cell_length_c       7.620549
_cell_angle_alpha    90.0
_cell_angle_beta     90.0
_cell_angle_gamma    90.0

_space_group_name_H-M_alt    "P 1"
_space_group_IT_number       1

loop_
  _space_group_symop_operation_xyz
  'x, y, z'

loop_
  _atom_site_type_symbol
  _atom_site_label
  _atom_site_symmetry_multiplicity
  _atom_site_fract_x
  _atom_site_fract_y
  _atom_site_fract_z
  _atom_site_occupancy
  Sn  Sn1       1.0  0.6489933605531467  0.6185198955977187  0.7822688699349543  1.0000
  Sn  Sn2       1.0  0.8361783202471936  0.34302961978820884  0.26393652484071145  1.0000
  Sn  Sn3       1.0  0.35211499898827703  0.9803282462066456  0.22128838539712534  1.0000
  Sn  Sn4       1.0  0.13444292304881633  0.06259541153057263  0.8033711600643898  1.0000
  W   W1        1.0  0.4372600462947811  0.4110137757867515  0.329511625101874  1.0000
  W   W2        1.0  0.11949258720937729  0.6276627935479225  0.6236512107903955  1.0000
  W   W3        1.0  0.523368874143322  0.1881098782015315  0.8165039788939135  1.0000
  W   W4        1.0  0.9433599215974098  0.7747649473118486  0.21116471206615195  1.0000
  O   O1        1.0  0.47705963949436525  0.9952424158652785  0.0005204435743684153  1.0000
  O   O2        1.0  0.6620916171909901  0.43825850501478325  0.47480492171301125  1.0000
  O   O3        1.0  0.300823347831016  0.4975369805101049  0.5514644416427036  1.0000
  O   O4        1.0  0.3641163153049499  0.5909470938578454  0.21066411206977026  1.0000
  O   O5        1.0  0.47568977207582347  0.08036777519999477  0.5984049262984353  1.0000
  O   O6        1.0  0.2694070852330086  0.22842217891327235  0.2684735160268538  1.0000
  O   O7        1.0  0.12679036242914815  0.6333882589834413  0.8575307752033189  1.0000
  O   O8        1.0  0.8109535501674554  0.8855529250079631  0.3791774719224666  1.0000
  O   O9        1.0  0.5844897582951457  0.29218872095967463  0.15588795969887725  1.0000
  O   O10       1.0  0.13080270878836292  0.8125732486637304  0.4506155737402078  1.0000
  O   O11       1.0  0.6601083945394874  0.3848676106871571  0.8638148702316191  1.0000
  O   O12       1.0  0.05119734722413183  0.9456497835436838  0.06938010462575593  1.0000
  O   O13       1.0  0.7570273524274349  0.7228698089459282  0.0604875675288066  1.0000
  O   O14       1.0  0.9097972781430235  0.481168928485274  0.6331832705892766  1.0000
  O   O15       1.0  0.3049322115559326  0.2829139389928243  0.8665585557697045  1.0000
  O   O16       1.0  0.04235899037536339  0.5581305121854814  0.25485629073962474  1.0000
data_image57
_chemical_formula_structural       Sn4W4O16
_chemical_formula_sum              "Sn4 W4 O16"
_cell_length_a       7.620549
_cell_length_b       7.620549
_cell_length_c       7.620549
_cell_angle_alpha    90.0
_cell_angle_beta     90.0
_cell_angle_gamma    90.0

_space_group_name_H-M_alt    "P 1"
_space_group_IT_number       1

loop_
  _space_group_symop_operation_xyz
  'x, y, z'

loop_
  _atom_site_type_symbol
  _atom_site_label
  _atom_site_symmetry_multiplicity
  _atom_site_fract_x
  _atom_site_fract_y
  _atom_site_fract_z
  _atom_site_occupancy
  Sn  Sn1       1.0  0.6163491695686988  0.6528892025936398  0.7392567987046119  1.0000
  Sn  Sn2       1.0  0.8260250713556199  0.3598386687192882  0.23553636882641624  1.0000
  Sn  Sn3       1.0  0.383653953549659  0.005883217477635316  0.2559666126274909  1.0000
  Sn  Sn4       1.0  0.061545639612252484  0.0541307871763167  0.8277184872324983  1.0000
  W   W1        1.0  0.4452351536210251  0.4208295973500104  0.3004413903710143  1.0000
  W   W2        1.0  0.12189368462280062  0.6051432083014854  0.6264363012928124  1.0000
  W   W3        1.0  0.518059975085555  0.14450266274924775  0.8515810536993053  1.0000
  W   W4        1.0  0.9529995926105621  0.8103629194955677  0.21282915726514764  1.0000
  O   O1        1.0  0.5054493907770043  0.9861280524328161  0.005558587870032134  1.0000
  O   O2        1.0  0.6445444832800361  0.43178094897317565  0.4616766730482793  1.0000
  O   O3        1.0  0.30845656170117597  0.4522511710951179  0.499609342488256  1.0000
  O   O4        1.0  0.44539716710908117  0.6074107111525167  0.15059478509773558  1.0000
  O   O5        1.0  0.535234324136574  0.9442974180602952  0.6733933913449468  1.0000
  O   O6        1.0  0.2752842877242856  0.23569402966604044  0.19629597921404326  1.0000
  O   O7        1.0  0.28237565890013  0.5958744763132975  0.8085191046586547  1.0000
  O   O8        1.0  0.8065828183251955  0.9581701464828726  0.31105808595914847  1.0000
  O   O9        1.0  0.6007661024832897  0.28984268266428276  0.15853690440926088  1.0000
  O   O10       1.0  0.11464393823959386  0.8404900012511247  0.5726823886512223  1.0000
  O   O11       1.0  0.6044767521121048  0.3634513803533609  0.8031574404387426  1.0000
  O   O12       1.0  0.1200989819188405  0.8808459282714604  0.04400827659618681  1.0000
  O   O13       1.0  0.8705281559025889  0.6146081478397571  0.11133886996358124  1.0000
  O   O14       1.0  0.9295853096242024  0.522910391646411  0.7160676679873553  1.0000
  O   O15       1.0  0.2917063694701481  0.19393916022931787  0.8191031106631937  1.0000
  O   O16       1.0  0.06239219250154027  0.6477876453111922  0.34903935421066773  1.0000
data_image58
_chemical_formula_structural       Sn4W4O16
_chemical_formula_sum              "Sn4 W4 O16"
_cell_length_a       7.620549
_cell_length_b       7.620549
_cell_length_c       7.620549
_cell_angle_alpha    90.0
_cell_angle_beta     90.0
_cell_angle_gamma    90.0

_space_group_name_H-M_alt    "P 1"
_space_group_IT_number       1

loop_
  _space_group_symop_operation_xyz
  'x, y, z'

loop_
  _atom_site_type_symbol
  _atom_site_label
  _atom_site_symmetry_multiplicity
  _atom_site_fract_x
  _atom_site_fract_y
  _atom_site_fract_z
  _atom_site_occupancy
  Sn  Sn1       1.0  0.5599923479928086  0.6812899139578148  0.7715845663967946  1.0000
  Sn  Sn2       1.0  0.8624034327590564  0.3041626353219761  0.19212792281755994  1.0000
  Sn  Sn3       1.0  0.38071657455448255  0.9990795872819055  0.25848126757847245  1.0000
  Sn  Sn4       1.0  0.020163573076216072  0.09536221328404096  0.8223424145213564  1.0000
  W   W1        1.0  0.4440253596797675  0.4359581447989247  0.24719686050764933  1.0000
  W   W2        1.0  0.17330220821818865  0.6062113725201408  0.6412929519271466  1.0000
  W   W3        1.0  0.5261231620145816  0.12067376910525955  0.8310928446124187  1.0000
  W   W4        1.0  0.9303058519353599  0.7995557942024688  0.26428508858275424  1.0000
  O   O1        1.0  0.4560014492871257  0.9449240431406272  0.009304817135573072  1.0000
  O   O2        1.0  0.703335579245613  0.4903313069699661  0.3132919211382488  1.0000
  O   O3        1.0  0.3583591309210027  0.5366232423061225  0.5005901604926333  1.0000
  O   O4        1.0  0.4432479330823334  0.6313211591652923  0.15946270689765377  1.0000
  O   O5        1.0  0.544724875466355  0.9289811703455746  0.6754756440341738  1.0000
  O   O6        1.0  0.287917631951184  0.2556588246130103  0.298208948292525  1.0000
  O   O7        1.0  0.3482595146372516  0.5560414471921539  0.8211814206625059  1.0000
  O   O8        1.0  0.8072473765951099  0.9794672962753874  0.3484581219609607  1.0000
  O   O9        1.0  0.5615930952044468  0.24681084026418404  0.08890216654036776  1.0000
  O   O10       1.0  0.11702384502979238  0.8273075321612109  0.6760433011033106  1.0000
  O   O11       1.0  0.6325034799376947  0.3149239549239216  0.7223452042476761  1.0000
  O   O12       1.0  0.11618577114002338  0.9511250776886003  0.1457543375073444  1.0000
  O   O13       1.0  0.7880659044581281  0.7573511060017661  0.07678213258446451  1.0000
  O   O14       1.0  0.017920364558988357  0.4626583506459446  0.781887183266394  1.0000
  O   O15       1.0  0.29437259099349034  0.17538297265340547  0.8010736624247428  1.0000
  O   O16       1.0  0.9619351459709251  0.6621705661034974  0.4624741982553623  1.0000
data_image59
_chemical_formula_structural       Sn4W4O16
_chemical_formula_sum              "Sn4 W4 O16"
_cell_length_a       7.620549
_cell_length_b       7.620549
_cell_length_c       7.620549
_cell_angle_alpha    90.0
_cell_angle_beta     90.0
_cell_angle_gamma    90.0

_space_group_name_H-M_alt    "P 1"
_space_group_IT_number       1

loop_
  _space_group_symop_operation_xyz
  'x, y, z'

loop_
  _atom_site_type_symbol
  _atom_site_label
  _atom_site_symmetry_multiplicity
  _atom_site_fract_x
  _atom_site_fract_y
  _atom_site_fract_z
  _atom_site_occupancy
  Sn  Sn1       1.0  0.6148850271194617  0.6821543434365678  0.8518532149651304  1.0000
  Sn  Sn2       1.0  0.8056424331800401  0.290710376837831  0.13655000092716296  1.0000
  Sn  Sn3       1.0  0.40516640649955704  0.9009539113519208  0.2193470624604142  1.0000
  Sn  Sn4       1.0  0.06259945808872254  0.1171030051025666  0.8150579279979835  1.0000
  W   W1        1.0  0.40685059898778325  0.4570699664143655  0.258591601555972  1.0000
  W   W2        1.0  0.18176861985266649  0.6030913953909677  0.6594329588600925  1.0000
  W   W3        1.0  0.523759155537542  0.10605499718978012  0.8300224649251752  1.0000
  W   W4        1.0  0.9158279515530217  0.8607790998812723  0.26406537104089006  1.0000
  O   O1        1.0  0.5893108807983175  0.9175057754952577  0.038401539307903895  1.0000
  O   O2        1.0  0.6558856271090902  0.4155853679702612  0.3660461648815809  1.0000
  O   O3        1.0  0.3355098512054735  0.5642352320706779  0.49047676468261087  1.0000
  O   O4        1.0  0.32874968486905914  0.6492589261298098  0.14696281217922888  1.0000
  O   O5        1.0  0.5413969026827754  0.9115911656040159  0.7003157677861328  1.0000
  O   O6        1.0  0.31776970922521985  0.259682341447086  0.36614839596249843  1.0000
  O   O7        1.0  0.3607936542726796  0.558517687270208  0.8335736253830291  1.0000
  O   O8        1.0  0.769838028012011  0.040226203322486276  0.29418621300774694  1.0000
  O   O9        1.0  0.48513139544270456  0.27913868411504156  0.019989326100199815  1.0000
  O   O10       1.0  0.07772617479243087  0.8242244930146442  0.7228289119195392  1.0000
  O   O11       1.0  0.713234721009212  0.19285796327098603  0.748718644555894  1.0000
  O   O12       1.0  0.08725529993015613  0.9719971320730274  0.16793834698299528  1.0000
  O   O13       1.0  0.8419098250672146  0.7127982752235328  0.08139212727959046  1.0000
  O   O14       1.0  0.03190882117456123  0.4147242197672097  0.5955283845342236  1.0000
  O   O15       1.0  0.3111904202605922  0.20632994502803226  0.7193020112816811  1.0000
  O   O16       1.0  0.031231607432366193  0.7288383865935935  0.42821484128641746  1.0000
data_image60
_chemical_formula_structural       Sn4W4O16
_chemical_formula_sum              "Sn4 W4 O16"
_cell_length_a       7.620549
_cell_length_b       7.620549
_cell_length_c       7.620549
_cell_angle_alpha    90.0
_cell_angle_beta     90.0
_cell_angle_gamma    90.0

_space_group_name_H-M_alt    "P 1"
_space_group_IT_number       1

loop_
  _space_group_symop_operation_xyz
  'x, y, z'

loop_
  _atom_site_type_symbol
  _atom_site_label
  _atom_site_symmetry_multiplicity
  _atom_site_fract_x
  _atom_site_fract_y
  _atom_site_fract_z
  _atom_site_occupancy
  Sn  Sn1       1.0  0.6206922882307079  0.6702113718646213  0.8871289659710019  1.0000
  Sn  Sn2       1.0  0.8115662032475358  0.34276326541805874  0.08935966612994677  1.0000
  Sn  Sn3       1.0  0.397906808880145  0.8787121853651101  0.28080696672192684  1.0000
  Sn  Sn4       1.0  0.08768649573523565  0.14545667689779915  0.8248993461577075  1.0000
  W   W1        1.0  0.35390553146047665  0.4447676494661974  0.26594083120512596  1.0000
  W   W2        1.0  0.1337693247844476  0.6193743905356339  0.6741939631848122  1.0000
  W   W3        1.0  0.5418471206799365  0.0825553695943824  0.81616469959561  1.0000
  W   W4        1.0  0.9739358984604969  0.8636036442300021  0.24876642509372465  1.0000
  O   O1        1.0  0.5866396260582543  0.9403787606377724  0.00970584317457823  1.0000
  O   O2        1.0  0.592730552507118  0.40938207400775595  0.27316190808886986  1.0000
  O   O3        1.0  0.24037065464628113  0.5659516256818464  0.4207009645680811  1.0000
  O   O4        1.0  0.41253735425086907  0.5907229929917037  0.1063582988378855  1.0000
  O   O5        1.0  0.5858008248942276  0.8777437733389516  0.6884102596328893  1.0000
  O   O6        1.0  0.18553700411925012  0.30414372944765655  0.15097336389576296  1.0000
  O   O7        1.0  0.3664460239156142  0.5915860446638996  0.699988010266288  1.0000
  O   O8        1.0  0.8459811172551952  0.03915882296070672  0.3115086610726261  1.0000
  O   O9        1.0  0.5533154100865925  0.23300443258610062  0.002875141701337857  1.0000
  O   O10       1.0  0.0356394126818658  0.774455578536511  0.8266049542405856  1.0000
  O   O11       1.0  0.7225855363259646  0.18389181612212502  0.7215132217025559  1.0000
  O   O12       1.0  0.1743312071942813  0.9017575220882071  0.14535894115103995  1.0000
  O   O13       1.0  0.8777631214142892  0.6505649502605647  0.14673874519394242  1.0000
  O   O14       1.0  0.9720961498227312  0.44784721188740056  0.7047943684968572  1.0000
  O   O15       1.0  0.3501312572595125  0.1891617351064333  0.6913447586165052  1.0000
  O   O16       1.0  0.03143754938884191  0.7792593188947379  0.46044243176630234  1.0000
data_image61
_chemical_formula_structural       Sn4W4O16
_chemical_formula_sum              "Sn4 W4 O16"
_cell_length_a       7.620549
_cell_length_b       7.620549
_cell_length_c       7.620549
_cell_angle_alpha    90.0
_cell_angle_beta     90.0
_cell_angle_gamma    90.0

_space_group_name_H-M_alt    "P 1"
_space_group_IT_number       1

loop_
  _space_group_symop_operation_xyz
  'x, y, z'

loop_
  _atom_site_type_symbol
  _atom_site_label
  _atom_site_symmetry_multiplicity
  _atom_site_fract_x
  _atom_site_fract_y
  _atom_site_fract_z
  _atom_site_occupancy
  Sn  Sn1       1.0  0.5614786815350443  0.6704159143899043  0.8822756642395849  1.0000
  Sn  Sn2       1.0  0.8124139372255897  0.36318981017805074  0.07636792126152417  1.0000
  Sn  Sn3       1.0  0.47618630134852924  0.890763195076497  0.2857359770035897  1.0000
  Sn  Sn4       1.0  0.051057278757721654  0.16746147571271658  0.814797771622306  1.0000
  W   W1        1.0  0.32900970212013403  0.4343928293357697  0.2471294970622791  1.0000
  W   W2        1.0  0.09372955634566378  0.6460885415938651  0.695059596582649  1.0000
  W   W3        1.0  0.567135587310398  0.09770176742720747  0.7807205368332627  1.0000
  W   W4        1.0  0.021530179763754154  0.8049351553993789  0.2834081906265679  1.0000
  O   O1        1.0  0.512949881372115  0.9342203962825362  0.9839927645055709  1.0000
  O   O2        1.0  0.44207598217869437  0.35661397027937136  0.4539195170525743  1.0000
  O   O3        1.0  0.22019606913199827  0.6227819160526925  0.4204966033771087  1.0000
  O   O4        1.0  0.5150384148277244  0.5391116349446965  0.12903677357766938  1.0000
  O   O5        1.0  0.5780379446678451  0.8811917424415739  0.6431378085395075  1.0000
  O   O6        1.0  0.22377001076527825  0.2604627166803132  0.13681370434776263  1.0000
  O   O7        1.0  0.3300032731334012  0.6206111162533797  0.773008719805681  1.0000
  O   O8        1.0  0.9337140939715163  0.008394306630456594  0.17658952732860042  1.0000
  O   O9        1.0  0.6033887071608444  0.302712722325525  0.910660358671158  1.0000
  O   O10       1.0  0.0054309338193626695  0.7642688263756647  0.8623494953654209  1.0000
  O   O11       1.0  0.7672195229920493  0.13210722023880203  0.655457348976131  1.0000
  O   O12       1.0  0.24143014709062438  0.8271708143485962  0.15904933099656612  1.0000
  O   O13       1.0  0.8353166769332907  0.6795648907463696  0.26425029035570863  1.0000
  O   O14       1.0  0.9920229097311178  0.4485243139659342  0.7388845676841759  1.0000
  O   O15       1.0  0.35528802824347583  0.16783770461671685  0.6944630739729882  1.0000
  O   O16       1.0  0.022397900612045163  0.8737375947112115  0.5157822666634917  1.0000
data_image62
_chemical_formula_structural       Sn4W4O16
_chemical_formula_sum              "Sn4 W4 O16"
_cell_length_a       7.620549
_cell_length_b       7.620549
_cell_length_c       7.620549
_cell_angle_alpha    90.0
_cell_angle_beta     90.0
_cell_angle_gamma    90.0

_space_group_name_H-M_alt    "P 1"
_space_group_IT_number       1

loop_
  _space_group_symop_operation_xyz
  'x, y, z'

loop_
  _atom_site_type_symbol
  _atom_site_label
  _atom_site_symmetry_multiplicity
  _atom_site_fract_x
  _atom_site_fract_y
  _atom_site_fract_z
  _atom_site_occupancy
  Sn  Sn1       1.0  0.5730959561377822  0.6705122066969198  0.9028290547049029  1.0000
  Sn  Sn2       1.0  0.8250563995447305  0.3582923496398719  0.10103428813050397  1.0000
  Sn  Sn3       1.0  0.5786857964794503  0.9282724241267658  0.26001712723297904  1.0000
  Sn  Sn4       1.0  0.04188386783766788  0.1882833125730175  0.7275877294151387  1.0000
  W   W1        1.0  0.28815954440974323  0.43276616724032113  0.29585370430616115  1.0000
  W   W2        1.0  0.07290653456523224  0.6049476197568806  0.7107934914437476  1.0000
  W   W3        1.0  0.5591833975315239  0.10333157018592341  0.7499121121181652  1.0000
  W   W4        1.0  0.03879379842343322  0.8178367182850447  0.28215248152899036  1.0000
  O   O1        1.0  0.6402018111264803  0.9796084314834598  0.9968687142278545  1.0000
  O   O2        1.0  0.29023026955318926  0.20542062341296358  0.29723543930298857  1.0000
  O   O3        1.0  0.20804309089789946  0.5479318786258259  0.5140412419077184  1.0000
  O   O4        1.0  0.490037198199122  0.5670837757877207  0.2949047413532566  1.0000
  O   O5        1.0  0.5861959038980432  0.8664164969604327  0.6854203654512572  1.0000
  O   O6        1.0  0.19238194673036868  0.3771495117284531  0.05636322460421363  1.0000
  O   O7        1.0  0.24786110394046368  0.5952331834742561  0.856431677202347  1.0000
  O   O8        1.0  0.8839968416237768  0.988821819043044  0.30166496512924745  1.0000
  O   O9        1.0  0.6630083937691659  0.3155667819401879  0.8872904661712231  1.0000
  O   O10       1.0  0.965733259254888  0.7625543396460243  0.8277081212290422  1.0000
  O   O11       1.0  0.6393344343055116  0.17270291289553413  0.5167033044415444  1.0000
  O   O12       1.0  0.2419874065412806  0.8685578354818699  0.1978533548189299  1.0000
  O   O13       1.0  0.9268093254857237  0.612605874926221  0.20166727735896653  1.0000
  O   O14       1.0  0.888919849737838  0.44768797276677386  0.6952673458532034  1.0000
  O   O15       1.0  0.33392751381914815  0.14130867066444594  0.821852688278398  1.0000
  O   O16       1.0  0.11137285874399705  0.8573842746252976  0.5251029234213384  1.0000
data_image63
_chemical_formula_structural       Sn4W4O16
_chemical_formula_sum              "Sn4 W4 O16"
_cell_length_a       7.620549
_cell_length_b       7.620549
_cell_length_c       7.620549
_cell_angle_alpha    90.0
_cell_angle_beta     90.0
_cell_angle_gamma    90.0

_space_group_name_H-M_alt    "P 1"
_space_group_IT_number       1

loop_
  _space_group_symop_operation_xyz
  'x, y, z'

loop_
  _atom_site_type_symbol
  _atom_site_label
  _atom_site_symmetry_multiplicity
  _atom_site_fract_x
  _atom_site_fract_y
  _atom_site_fract_z
  _atom_site_occupancy
  Sn  Sn1       1.0  0.5638750167814498  0.7158373404599883  0.9200802101128615  1.0000
  Sn  Sn2       1.0  0.8591789084944722  0.41343729829006926  0.12507275372070664  1.0000
  Sn  Sn3       1.0  0.5771979316521755  0.9873915809447106  0.3157857851802013  1.0000
  Sn  Sn4       1.0  0.06735708216455744  0.15377829255418365  0.6432945707448818  1.0000
  W   W1        1.0  0.3191079866414088  0.38233851123567714  0.2830012333270543  1.0000
  W   W2        1.0  0.07904434138805295  0.6074230881737337  0.7021639774278298  1.0000
  W   W3        1.0  0.5132155545548156  0.08682316130139392  0.7732595256262281  1.0000
  W   W4        1.0  0.04929718950049078  0.8591052395795457  0.28524612189373183  1.0000
  O   O1        1.0  0.418558923383951  0.9425437177101721  0.9877975050374264  1.0000
  O   O2        1.0  0.31814512199103456  0.13848960438247374  0.24682449395758743  1.0000
  O   O3        1.0  0.18331313119346124  0.4023343913325621  0.4867255604926694  1.0000
  O   O4        1.0  0.5218099693548425  0.511353827641758  0.18578453613572998  1.0000
  O   O5        1.0  0.505238527339684  0.8161616300760688  0.6973660872098619  1.0000
  O   O6        1.0  0.13276565040364519  0.38434990837581784  0.11300640720724824  1.0000
  O   O7        1.0  0.2771502691163859  0.6236451338989406  0.808571312078604  1.0000
  O   O8        1.0  0.845777334426622  0.06731841327434962  0.22846984675899354  1.0000
  O   O9        1.0  0.7091458561271297  0.14934765425513374  0.8678099006060769  1.0000
  O   O10       1.0  0.9293681758842514  0.6621018854242608  0.8991874827428612  1.0000
  O   O11       1.0  0.6039431233266703  0.13237187094017525  0.5140266640196826  1.0000
  O   O12       1.0  0.253770222443072  0.7502157903827726  0.22016814822487346  1.0000
  O   O13       1.0  0.8776731140995643  0.7191153648536416  0.20928893275700966  1.0000
  O   O14       1.0  0.950632158761681  0.3828057149288779  0.7480629988523964  1.0000
  O   O15       1.0  0.3054491492580938  0.2010897467562378  0.8012257889077087  1.0000
  O   O16       1.0  0.07000075637978043  0.7730899675324158  0.5294437826619013  1.0000
data_image64
_chemical_formula_structural       Sn4W4O16
_chemical_formula_sum              "Sn4 W4 O16"
_cell_length_a       7.620549
_cell_length_b       7.620549
_cell_length_c       7.620549
_cell_angle_alpha    90.0
_cell_angle_beta     90.0
_cell_angle_gamma    90.0

_space_group_name_H-M_alt    "P 1"
_space_group_IT_number       1

loop_
  _space_group_symop_operation_xyz
  'x, y, z'

loop_
  _atom_site_type_symbol
  _atom_site_label
  _atom_site_symmetry_multiplicity
  _atom_site_fract_x
  _atom_site_fract_y
  _atom_site_fract_z
  _atom_site_occupancy
  Sn  Sn1       1.0  0.5892229095246612  0.6426392056498136  0.9156668638970495  1.0000
  Sn  Sn2       1.0  0.8641127227645302  0.4672140843636411  0.11320025646063349  1.0000
  Sn  Sn3       1.0  0.5823490134821281  0.040844770904794325  0.37920404739603286  1.0000
  Sn  Sn4       1.0  0.1224201507702322  0.12455357617713401  0.597583371356096  1.0000
  W   W1        1.0  0.33546810526241194  0.36388940181379664  0.2876663170326033  1.0000
  W   W2        1.0  0.06640514223921432  0.602314458222254  0.7077360688928138  1.0000
  W   W3        1.0  0.4948667581382073  0.08829599207545046  0.7799154873222023  1.0000
  W   W4        1.0  0.9924385483267257  0.8357713492351821  0.28223172963053333  1.0000
  O   O1        1.0  0.5454816336311263  0.9098199476870992  0.9491848661243154  1.0000
  O   O2        1.0  0.3253838020355444  0.13592064927885228  0.2540096040811217  1.0000
  O   O3        1.0  0.23556896826962626  0.48938342027282666  0.470716135244241  1.0000
  O   O4        1.0  0.5398475554463585  0.43417973262348  0.14540133543610387  1.0000
  O   O5        1.0  0.6213753940429886  0.9231283173616811  0.5784324771053093  1.0000
  O   O6        1.0  0.19180735971710927  0.4273056224409676  0.10972531759165963  1.0000
  O   O7        1.0  0.2883675236088297  0.6394177168985145  0.778760741485213  1.0000
  O   O8        1.0  0.99020784320438  0.10354843725969953  0.3589381771653646  1.0000
  O   O9        1.0  0.6454087140095826  0.2660974247857492  0.8518767776335747  1.0000
  O   O10       1.0  0.9378229991352287  0.6559991359242143  0.9153908449621806  1.0000
  O   O11       1.0  0.47020830367785865  0.25953647315782163  0.535201321028986  1.0000
  O   O12       1.0  0.2063448625315838  0.8283633375886034  0.20289600154536097  1.0000
  O   O13       1.0  0.7733730918786104  0.7767952517062428  0.19022832882491372  1.0000
  O   O14       1.0  0.008328124205678144  0.3828995729852948  0.7187521266524285  1.0000
  O   O15       1.0  0.2979185880355914  0.1952535280266739  0.8043329857929328  1.0000
  O   O16       1.0  0.9858178838895129  0.7021386611012584  0.49877107299331647  1.0000
data_image65
_chemical_formula_structural       Sn4W4O16
_chemical_formula_sum              "Sn4 W4 O16"
_cell_length_a       7.620549
_cell_length_b       7.620549
_cell_length_c       7.620549
_cell_angle_alpha    90.0
_cell_angle_beta     90.0
_cell_angle_gamma    90.0

_space_group_name_H-M_alt    "P 1"
_space_group_IT_number       1

loop_
  _space_group_symop_operation_xyz
  'x, y, z'

loop_
  _atom_site_type_symbol
  _atom_site_label
  _atom_site_symmetry_multiplicity
  _atom_site_fract_x
  _atom_site_fract_y
  _atom_site_fract_z
  _atom_site_occupancy
  Sn  Sn1       1.0  0.5181842292208387  0.5959702589484341  0.9088684997153507  1.0000
  Sn  Sn2       1.0  0.8834638513311169  0.4217730552961501  0.13121611711752815  1.0000
  Sn  Sn3       1.0  0.5687063593063243  0.014781348453106524  0.3501522220034595  1.0000
  Sn  Sn4       1.0  0.14367204859876118  0.14327029025927793  0.6235078745209996  1.0000
  W   W1        1.0  0.3369219551799909  0.3559084263527107  0.2647908479183553  1.0000
  W   W2        1.0  0.08469382741395994  0.6066844380261679  0.6850122811192622  1.0000
  W   W3        1.0  0.5384737865114723  0.14036320421859796  0.7961764732882163  1.0000
  W   W4        1.0  0.9756036090465651  0.856853412992697  0.31490999872734493  1.0000
  O   O1        1.0  0.6336008972482168  0.03168819694786674  0.9620436848871119  1.0000
  O   O2        1.0  0.3311147518271786  0.04630494471381943  0.2693901832918104  1.0000
  O   O3        1.0  0.22034505783481767  0.4413472447047648  0.48742271728049813  1.0000
  O   O4        1.0  0.40458074844741726  0.5535978568543627  0.1898778539013855  1.0000
  O   O5        1.0  0.5579932355669375  0.9607357888959088  0.6243580140961573  1.0000
  O   O6        1.0  0.18297205878981293  0.3006081282522149  0.09668070872429357  1.0000
  O   O7        1.0  0.33202157932934484  0.6803448295600663  0.736534239057834  1.0000
  O   O8        1.0  0.00421628420505707  0.1199630903133464  0.3855481277816142  1.0000
  O   O9        1.0  0.6601844332941013  0.33840787216686063  0.8318539981178076  1.0000
  O   O10       1.0  0.8841614699386097  0.5709607916688345  0.8348179649374162  1.0000
  O   O11       1.0  0.5900585853833072  0.2802773282588503  0.2819025421756642  1.0000
  O   O12       1.0  0.03244193876888968  0.6785681852822087  0.19330668100397053  1.0000
  O   O13       1.0  0.7155563330477608  0.8322348353123807  0.24701980495886208  1.0000
  O   O14       1.0  0.04725275305212719  0.3691620745776334  0.7198572755959686  1.0000
  O   O15       1.0  0.2929018877230862  0.09894460734379582  0.8336359235227853  1.0000
  O   O16       1.0  0.9786900725755225  0.7873290181668162  0.5793494157749879  1.0000
data_image66
_chemical_formula_structural       Sn4W4O16
_chemical_formula_sum              "Sn4 W4 O16"
_cell_length_a       7.620549
_cell_length_b       7.620549
_cell_length_c       7.620549
_cell_angle_alpha    90.0
_cell_angle_beta     90.0
_cell_angle_gamma    90.0

_space_group_name_H-M_alt    "P 1"
_space_group_IT_number       1

loop_
  _space_group_symop_operation_xyz
  'x, y, z'

loop_
  _atom_site_type_symbol
  _atom_site_label
  _atom_site_symmetry_multiplicity
  _atom_site_fract_x
  _atom_site_fract_y
  _atom_site_fract_z
  _atom_site_occupancy
  Sn  Sn1       1.0  0.5030412999495167  0.6903107204821419  0.941791344703878  1.0000
  Sn  Sn2       1.0  0.8869215409806845  0.45375357711415637  0.14564821223395913  1.0000
  Sn  Sn3       1.0  0.5672077645188865  0.035195238276455765  0.3091936386445217  1.0000
  Sn  Sn4       1.0  0.1439759326760226  0.09160898888523983  0.6060053898524708  1.0000
  W   W1        1.0  0.3189408261758527  0.32424170510957645  0.22063839914437194  1.0000
  W   W2        1.0  0.07129237428535368  0.5664305410835284  0.678221852401655  1.0000
  W   W3        1.0  0.5955339403331855  0.0989144902878275  0.8386485056120947  1.0000
  W   W4        1.0  0.9540451814058968  0.9058712464049373  0.3402388292105763  1.0000
  O   O1        1.0  0.626335278495042  0.9442826622287508  0.029853319551722504  1.0000
  O   O2        1.0  0.3268247417363945  0.06558771650619948  0.3905609248134152  1.0000
  O   O3        1.0  0.2129726550151984  0.38222770815254964  0.4144066317203699  1.0000
  O   O4        1.0  0.36258389381531914  0.5594030708650315  0.13374839651267245  1.0000
  O   O5        1.0  0.6290411601094235  0.02706871548340544  0.5973929990755859  1.0000
  O   O6        1.0  0.140146930518539  0.2725536512174241  0.07430719878862953  1.0000
  O   O7        1.0  0.31523770160096326  0.5561391571236056  0.6828108929058131  1.0000
  O   O8        1.0  0.9174435531719285  0.157413531305012  0.2728161091387989  1.0000
  O   O9        1.0  0.6859817686422035  0.32105914938009916  0.9346789955793834  1.0000
  O   O10       1.0  0.9300134373348269  0.6906491774662423  0.8579313820856233  1.0000
  O   O11       1.0  0.5672033512462795  0.2771967132921942  0.243266264630392  1.0000
  O   O12       1.0  0.07119901154437236  0.8141766096529934  0.14173002106332602  1.0000
  O   O13       1.0  0.7182873346039773  0.830040833954893  0.3302641112769025  1.0000
  O   O14       1.0  0.9742137640407287  0.35073448469757407  0.6927708106432717  1.0000
  O   O15       1.0  0.37457879103152203  0.13669038503908404  0.9069254497527897  1.0000
  O   O16       1.0  0.08574497501290179  0.7276374958752015  0.47298572682222845  1.0000
data_image67
_chemical_formula_structural       Sn4W4O16
_chemical_formula_sum              "Sn4 W4 O16"
_cell_length_a       7.620549
_cell_length_b       7.620549
_cell_length_c       7.620549
_cell_angle_alpha    90.0
_cell_angle_beta     90.0
_cell_angle_gamma    90.0

_space_group_name_H-M_alt    "P 1"
_space_group_IT_number       1

loop_
  _space_group_symop_operation_xyz
  'x, y, z'

loop_
  _atom_site_type_symbol
  _atom_site_label
  _atom_site_symmetry_multiplicity
  _atom_site_fract_x
  _atom_site_fract_y
  _atom_site_fract_z
  _atom_site_occupancy
  Sn  Sn1       1.0  0.5043475652495685  0.663808959686133  0.9050319024505061  1.0000
  Sn  Sn2       1.0  0.8417968979957876  0.44452584348528135  0.1828577170295097  1.0000
  Sn  Sn3       1.0  0.5589373415146907  0.998255940287421  0.3293709742267117  1.0000
  Sn  Sn4       1.0  0.1448789161357538  0.1175888773331302  0.6081792269093929  1.0000
  W   W1        1.0  0.3424389789504102  0.3550178114136872  0.21363474402189214  1.0000
  W   W2        1.0  0.032595608790520876  0.5627764186676504  0.6832714915047412  1.0000
  W   W3        1.0  0.6510504462720424  0.11377191822393677  0.8507525940010462  1.0000
  W   W4        1.0  0.9431027274519755  0.8857089684921319  0.30138344977565834  1.0000
  O   O1        1.0  0.5886984466676172  0.9563989124950913  0.007186820719708097  1.0000
  O   O2        1.0  0.3267631746202721  0.0506986743062745  0.27382421091132647  1.0000
  O   O3        1.0  0.23325179698325316  0.4135969100528425  0.4177161769349016  1.0000
  O   O4        1.0  0.46351785650025074  0.5592530878964281  0.16971696972604816  1.0000
  O   O5        1.0  0.6385174455139482  0.9794497128111695  0.6699532192711014  1.0000
  O   O6        1.0  0.15554989846661726  0.3254555314087285  0.08118726431516002  1.0000
  O   O7        1.0  0.22124416528758165  0.6027887898823867  0.8088944868111925  1.0000
  O   O8        1.0  0.9148145578132283  0.10086353505117063  0.4432758544076261  1.0000
  O   O9        1.0  0.8050826882419898  0.29665658367665915  0.9761367180590991  1.0000
  O   O10       1.0  0.8854099557404147  0.6557388395760602  0.8376645399176993  1.0000
  O   O11       1.0  0.621931570086964  0.2807417937798405  0.24685505661774684  1.0000
  O   O12       1.0  0.9631201438302914  0.9289314712787193  0.08018267688343005  1.0000
  O   O13       1.0  0.7289706884746581  0.7689970462903296  0.32983989622739324  1.0000
  O   O14       1.0  0.9122311152291054  0.32446369416684356  0.6821877413662268  1.0000
  O   O15       1.0  0.46848764980847263  0.27730915701378367  0.8536306376708575  1.0000
  O   O16       1.0  0.046095713795992976  0.6783229233696655  0.4761623608747002  1.0000
data_image68
_chemical_formula_structural       Sn4W4O16
_chemical_formula_sum              "Sn4 W4 O16"
_cell_length_a       7.620549
_cell_length_b       7.620549
_cell_length_c       7.620549
_cell_angle_alpha    90.0
_cell_angle_beta     90.0
_cell_angle_gamma    90.0

_space_group_name_H-M_alt    "P 1"
_space_group_IT_number       1

loop_
  _space_group_symop_operation_xyz
  'x, y, z'

loop_
  _atom_site_type_symbol
  _atom_site_label
  _atom_site_symmetry_multiplicity
  _atom_site_fract_x
  _atom_site_fract_y
  _atom_site_fract_z
  _atom_site_occupancy
  Sn  Sn1       1.0  0.529067583556762  0.6656534354705702  0.8633972182306434  1.0000
  Sn  Sn2       1.0  0.844690312327319  0.4459200260145453  0.14237589951482807  1.0000
  Sn  Sn3       1.0  0.5551128103410478  0.9941781183720034  0.34559423742074385  1.0000
  Sn  Sn4       1.0  0.21273038201336997  0.17235650044138878  0.6075099785564605  1.0000
  W   W1        1.0  0.32426828615459735  0.33780474130983323  0.21601012279496898  1.0000
  W   W2        1.0  0.024735347820714397  0.610400588491615  0.7050121742069612  1.0000
  W   W3        1.0  0.6358406436447437  0.11212074645305169  0.9104481475051305  1.0000
  W   W4        1.0  0.9201266311117049  0.8512183186055876  0.2696575719347325  1.0000
  O   O1        1.0  0.5895540151257193  0.9036314902368989  0.0011470171148785459  1.0000
  O   O2        1.0  0.2522555314439575  0.09460530005120572  0.2995802485915664  1.0000
  O   O3        1.0  0.2717658708897572  0.45307233671627595  0.4199773886487754  1.0000
  O   O4        1.0  0.5184910667810219  0.4663401839008705  0.047329579176064264  1.0000
  O   O5        1.0  0.687355957121178  0.047351600560373276  0.6755208856201766  1.0000
  O   O6        1.0  0.15275738480197276  0.4072086531999633  0.11090016595455797  1.0000
  O   O7        1.0  0.24210705057606516  0.6337809192986071  0.7680274729954744  1.0000
  O   O8        1.0  0.8873761701099857  0.046042771635187885  0.37196959376621197  1.0000
  O   O9        1.0  0.8642517741311044  0.181547857334607  0.978968809084015  1.0000
  O   O10       1.0  0.8267350608419353  0.5466813016742035  0.8725196691812476  1.0000
  O   O11       1.0  0.6353023478220873  0.23438385991484  0.2880714436781551  1.0000
  O   O12       1.0  0.012785669426436996  0.7757650861507284  0.05432318568344864  1.0000
  O   O13       1.0  0.6932935401364211  0.7408827953005587  0.28708845704044045  1.0000
  O   O14       1.0  0.999043187793763  0.3788951583437184  0.6157339414298219  1.0000
  O   O15       1.0  0.42285669460501873  0.20766571239301274  0.9589465277573016  1.0000
  O   O16       1.0  0.9956995254592088  0.7390291938357627  0.4906372333348996  1.0000
data_image69
_chemical_formula_structural       Sn4W4O16
_chemical_formula_sum              "Sn4 W4 O16"
_cell_length_a       7.620549
_cell_length_b       7.620549
_cell_length_c       7.620549
_cell_angle_alpha    90.0
_cell_angle_beta     90.0
_cell_angle_gamma    90.0

_space_group_name_H-M_alt    "P 1"
_space_group_IT_number       1

loop_
  _space_group_symop_operation_xyz
  'x, y, z'

loop_
  _atom_site_type_symbol
  _atom_site_label
  _atom_site_symmetry_multiplicity
  _atom_site_fract_x
  _atom_site_fract_y
  _atom_site_fract_z
  _atom_site_occupancy
  Sn  Sn1       1.0  0.5161422695894138  0.6700547173124144  0.8187194832017586  1.0000
  Sn  Sn2       1.0  0.8548121847612401  0.43482201572666057  0.12732285819338143  1.0000
  Sn  Sn3       1.0  0.5439194289783633  0.9636771816204295  0.3943684640675524  1.0000
  Sn  Sn4       1.0  0.2401761588438484  0.1680117746761382  0.6100926063033048  1.0000
  W   W1        1.0  0.33358804708048106  0.30985136106601935  0.18132120813801791  1.0000
  W   W2        1.0  0.025339105649213673  0.6340583812498501  0.6852827341166757  1.0000
  W   W3        1.0  0.6271307464067906  0.08492191615861065  0.9240834052772394  1.0000
  W   W4        1.0  0.9205690628377956  0.8779854438790013  0.3036461258760437  1.0000
  O   O1        1.0  0.6155519509850427  0.8743366591653936  0.020037732941417623  1.0000
  O   O2        1.0  0.24767416901781908  0.08325292769853695  0.3442701488316211  1.0000
  O   O3        1.0  0.3361117418435284  0.3898881302187578  0.42509950462933227  1.0000
  O   O4        1.0  0.44265587157852676  0.5113046954187643  0.10728780638156589  1.0000
  O   O5        1.0  0.6106344155627046  0.09583154208918601  0.6635092815237644  1.0000
  O   O6        1.0  0.10408377425585225  0.36075020578431377  0.12153233301264219  1.0000
  O   O7        1.0  0.19956130189037372  0.7061608767558445  0.7902473711972017  1.0000
  O   O8        1.0  0.8501685656718145  0.12073392453254406  0.27433813598053275  1.0000
  O   O9        1.0  0.8019130110888893  0.23944851929750116  0.8848375688462706  1.0000
  O   O10       1.0  0.8316539964991638  0.7335007148850031  0.8173362411566821  1.0000
  O   O11       1.0  0.5715269186847591  0.1951350614842802  0.2623182440565058  1.0000
  O   O12       1.0  0.06084013570494884  0.7670265701642164  0.17397241230659374  1.0000
  O   O13       1.0  0.7536536132414204  0.7537367571606227  0.41171426395246896  1.0000
  O   O14       1.0  0.004994150377991293  0.4230747909113614  0.5752791258510177  1.0000
  O   O15       1.0  0.4012211912754818  0.13562372037866594  0.9786711039137143  1.0000
  O   O16       1.0  0.07155754616187582  0.8324382537247935  0.5215944319337235  1.0000
data_image70
_chemical_formula_structural       Sn4W4O16
_chemical_formula_sum              "Sn4 W4 O16"
_cell_length_a       7.620549
_cell_length_b       7.620549
_cell_length_c       7.620549
_cell_angle_alpha    90.0
_cell_angle_beta     90.0
_cell_angle_gamma    90.0

_space_group_name_H-M_alt    "P 1"
_space_group_IT_number       1

loop_
  _space_group_symop_operation_xyz
  'x, y, z'

loop_
  _atom_site_type_symbol
  _atom_site_label
  _atom_site_symmetry_multiplicity
  _atom_site_fract_x
  _atom_site_fract_y
  _atom_site_fract_z
  _atom_site_occupancy
  Sn  Sn1       1.0  0.4806779994162339  0.6424264108027098  0.8285315028924402  1.0000
  Sn  Sn2       1.0  0.8396154140374131  0.3863172318216595  0.13900354837699797  1.0000
  Sn  Sn3       1.0  0.530055179904765  0.9327630690376502  0.38978897770840315  1.0000
  Sn  Sn4       1.0  0.2028080376654136  0.18584914860735344  0.5846883609923312  1.0000
  W   W1        1.0  0.34655028329027593  0.32342139996242647  0.2030082365760169  1.0000
  W   W2        1.0  0.057430720410639756  0.64053231031586  0.6818200836539773  1.0000
  W   W3        1.0  0.5935196011331558  0.096544072801373  0.8912937826974191  1.0000
  W   W4        1.0  0.9775627341598513  0.9275870976333743  0.333604491695926  1.0000
  O   O1        1.0  0.5677094652999387  0.8678408719703141  0.9998699118747505  1.0000
  O   O2        1.0  0.16940127272496652  0.09851544574211074  0.3360635931104523  1.0000
  O   O3        1.0  0.39809828806074143  0.3862733839812035  0.4276036379049836  1.0000
  O   O4        1.0  0.4763043007370675  0.4692177073824515  0.07521677636777926  1.0000
  O   O5        1.0  0.6658952659047787  0.03521469469800149  0.6682538832172134  1.0000
  O   O6        1.0  0.11617409189346972  0.346375372231617  0.11186530148387884  1.0000
  O   O7        1.0  0.17940805886919392  0.6427160466091986  0.8724221925253361  1.0000
  O   O8        1.0  0.79938294168722  0.1353704767549928  0.35914112035786977  1.0000
  O   O9        1.0  0.821914838373287  0.19294497856657172  0.9617372129777353  1.0000
  O   O10       1.0  0.8309591727226253  0.6246335786466354  0.7703668562608169  1.0000
  O   O11       1.0  0.5279058400472637  0.11315731229457675  0.16704071429870027  1.0000
  O   O12       1.0  0.04766438545088425  0.7960247703842009  0.15629461028014255  1.0000
  O   O13       1.0  0.7837398568652362  0.8056646429126751  0.39204071213515385  1.0000
  O   O14       1.0  0.0439401365112019  0.4015874390391259  0.580799137622263  1.0000
  O   O15       1.0  0.3754278553374104  0.19822299844050384  0.827748996015023  1.0000
  O   O16       1.0  0.07543151005124105  0.8523388081965717  0.5593074859126459  1.0000
data_image71
_chemical_formula_structural       Sn4W4O16
_chemical_formula_sum              "Sn4 W4 O16"
_cell_length_a       7.620549
_cell_length_b       7.620549
_cell_length_c       7.620549
_cell_angle_alpha    90.0
_cell_angle_beta     90.0
_cell_angle_gamma    90.0

_space_group_name_H-M_alt    "P 1"
_space_group_IT_number       1

loop_
  _space_group_symop_operation_xyz
  'x, y, z'

loop_
  _atom_site_type_symbol
  _atom_site_label
  _atom_site_symmetry_multiplicity
  _atom_site_fract_x
  _atom_site_fract_y
  _atom_site_fract_z
  _atom_site_occupancy
  Sn  Sn1       1.0  0.5048866421785544  0.6023378973162945  0.7814085844861173  1.0000
  Sn  Sn2       1.0  0.8893801106176039  0.3788254794298555  0.15693273326021787  1.0000
  Sn  Sn3       1.0  0.5876340549545478  0.9271939394195575  0.3823190483520426  1.0000
  Sn  Sn4       1.0  0.22427653993256674  0.19714739419470306  0.6254543317946409  1.0000
  W   W1        1.0  0.3299142534701399  0.3508218010497226  0.1981128527562939  1.0000
  W   W2        1.0  0.005430293291104605  0.6132344482655843  0.7147572162515275  1.0000
  W   W3        1.0  0.5688952403514128  0.0880130043999229  0.8784495436238869  1.0000
  W   W4        1.0  0.9852126169074793  0.9442730994498555  0.32484971845933736  1.0000
  O   O1        1.0  0.587385237280362  0.8689645505885879  0.9597508242099952  1.0000
  O   O2        1.0  0.17889268112403287  0.0790032757462717  0.3639316306241174  1.0000
  O   O3        1.0  0.3278590210783058  0.3970000061882882  0.43818696865051776  1.0000
  O   O4        1.0  0.468578025044775  0.5329227363410516  0.1330298417419902  1.0000
  O   O5        1.0  0.5863903933711903  0.06859666764302252  0.6231670974156677  1.0000
  O   O6        1.0  0.12385270375614299  0.3830524079956942  0.07590766606979994  1.0000
  O   O7        1.0  0.2374903426877955  0.5905195721891694  0.8164711634181891  1.0000
  O   O8        1.0  0.8060334307868569  0.1145890352088983  0.24885138053190317  1.0000
  O   O9        1.0  0.7522652502633981  0.22473878521543839  0.9210882756399466  1.0000
  O   O10       1.0  0.8499177911538986  0.6369413391934455  0.9114233718725689  1.0000
  O   O11       1.0  0.45756142130187993  0.13625676556861288  0.1604701039078793  1.0000
  O   O12       1.0  0.08308227334169183  0.8836409706521621  0.12312895053835371  1.0000
  O   O13       1.0  0.7892828874852612  0.759900723097628  0.3856641559828342  1.0000
  O   O14       1.0  0.9470601748566417  0.4272590884284641  0.5658656412934878  1.0000
  O   O15       1.0  0.42838900367734495  0.2771577324891658  0.8443020787379227  1.0000
  O   O16       1.0  0.09707970078258277  0.7905244987828431  0.605763955442926  1.0000
data_image72
_chemical_formula_structural       Sn4W4O16
_chemical_formula_sum              "Sn4 W4 O16"
_cell_length_a       7.620549
_cell_length_b       7.620549
_cell_length_c       7.620549
_cell_angle_alpha    90.0
_cell_angle_beta     90.0
_cell_angle_gamma    90.0

_space_group_name_H-M_alt    "P 1"
_space_group_IT_number       1

loop_
  _space_group_symop_operation_xyz
  'x, y, z'

loop_
  _atom_site_type_symbol
  _atom_site_label
  _atom_site_symmetry_multiplicity
  _atom_site_fract_x
  _atom_site_fract_y
  _atom_site_fract_z
  _atom_site_occupancy
  Sn  Sn1       1.0  0.5097288358817507  0.5908349889813497  0.7903417224499836  1.0000
  Sn  Sn2       1.0  0.8594816751722693  0.38685253593536795  0.1479009962889969  1.0000
  Sn  Sn3       1.0  0.578151055832936  0.9670692433899899  0.35934413144325134  1.0000
  Sn  Sn4       1.0  0.21862182413315873  0.22082478254804278  0.6389049494937794  1.0000
  W   W1        1.0  0.3269873488535496  0.33347611072151806  0.21879901032163698  1.0000
  W   W2        1.0  0.9933446499625077  0.6225112730809855  0.7211677390333037  1.0000
  W   W3        1.0  0.5995134057854439  0.11213977398655949  0.8769570185424981  1.0000
  W   W4        1.0  0.9966267114703454  0.8904083776630592  0.3133094306651042  1.0000
  O   O1        1.0  0.4875698037924714  0.8800402249687987  0.885774372466428  1.0000
  O   O2        1.0  0.19271559271386665  0.13212433845976856  0.38012240470457215  1.0000
  O   O3        1.0  0.3487386456064016  0.435436634339281  0.43677495332628336  1.0000
  O   O4        1.0  0.48107677025364626  0.4634632574162627  0.10151345241133751  1.0000
  O   O5        1.0  0.6746806169267746  0.1400498176210323  0.6497026903432378  1.0000
  O   O6        1.0  0.10268171305286145  0.3473910336298985  0.058045835238120444  1.0000
  O   O7        1.0  0.18478981951787582  0.6546931644788496  0.8487913452909737  1.0000
  O   O8        1.0  0.8149898679633878  0.09754412206034657  0.2877894190687019  1.0000
  O   O9        1.0  0.812479576623021  0.17417013532653194  0.9757636215471683  1.0000
  O   O10       1.0  0.8042328524288676  0.5989118791907038  0.8754985500245323  1.0000
  O   O11       1.0  0.44686223891694227  0.1362568014544909  0.14868269188498695  1.0000
  O   O12       1.0  0.12971587229172776  0.7802115229751002  0.17943637647731825  1.0000
  O   O13       1.0  0.7877046305966888  0.7418305426292607  0.33209119587939895  1.0000
  O   O14       1.0  0.003073710248672707  0.43668055701682945  0.5716426031751962  1.0000
  O   O15       1.0  0.4443124084790551  0.32036462784934167  0.8050491008378703  1.0000
  O   O16       1.0  0.00657556984062424  0.8168164164810898  0.5676272432890329  1.0000
data_image73
_chemical_formula_structural       Sn4W4O16
_chemical_formula_sum              "Sn4 W4 O16"
_cell_length_a       7.620549
_cell_length_b       7.620549
_cell_length_c       7.620549
_cell_angle_alpha    90.0
_cell_angle_beta     90.0
_cell_angle_gamma    90.0

_space_group_name_H-M_alt    "P 1"
_space_group_IT_number       1

loop_
  _space_group_symop_operation_xyz
  'x, y, z'

loop_
  _atom_site_type_symbol
  _atom_site_label
  _atom_site_symmetry_multiplicity
  _atom_site_fract_x
  _atom_site_fract_y
  _atom_site_fract_z
  _atom_site_occupancy
  Sn  Sn1       1.0  0.46867094824232747  0.6058409786094733  0.8495827882410656  1.0000
  Sn  Sn2       1.0  0.8378233786958601  0.37852356206895865  0.15671381777164145  1.0000
  Sn  Sn3       1.0  0.5909170674884056  0.9223214830544222  0.389183189184112  1.0000
  Sn  Sn4       1.0  0.2213116894297615  0.21477230899167676  0.617843622354808  1.0000
  W   W1        1.0  0.34780815339755844  0.32789261970574485  0.24112362927321823  1.0000
  W   W2        1.0  0.9753432984064707  0.6204742860430017  0.7181651594022179  1.0000
  W   W3        1.0  0.6267036867886321  0.13532820723663175  0.8370649369562426  1.0000
  W   W4        1.0  0.987688070870611  0.8979277048592639  0.31164504098049933  1.0000
  O   O1        1.0  0.5656449733162361  0.8975725164565233  0.8731120207675989  1.0000
  O   O2        1.0  0.173046907758757  0.05347444704206324  0.3948685282645321  1.0000
  O   O3        1.0  0.37944626301348444  0.4020307978834607  0.4597168719236622  1.0000
  O   O4        1.0  0.43334935950888925  0.5203400821816049  0.11861906070092368  1.0000
  O   O5        1.0  0.6565271068183527  0.14658534610433013  0.5711561958703466  1.0000
  O   O6        1.0  0.12549091488723163  0.3342134434920823  0.17401057385815435  1.0000
  O   O7        1.0  0.1856073897490638  0.6076217875546361  0.8109124335593552  1.0000
  O   O8        1.0  0.9048454312249742  0.10408820680125608  0.17771771907386605  1.0000
  O   O9        1.0  0.8018128464676098  0.28053636867643256  0.8341595756854645  1.0000
  O   O10       1.0  0.7728948458135607  0.6327632693762574  0.8248675867089355  1.0000
  O   O11       1.0  0.5272241598660198  0.14122931427303018  0.16613435780699823  1.0000
  O   O12       1.0  0.14006730999387895  0.7854998535279237  0.1722642233918102  1.0000
  O   O13       1.0  0.7988109727484864  0.7432803409994112  0.26178602655769606  1.0000
  O   O14       1.0  0.9555907055318638  0.4733434480852486  0.5488848184768002  1.0000
  O   O15       1.0  0.4530507244050915  0.29745027393671825  0.8444714153368034  1.0000
  O   O16       1.0  0.9780742352045503  0.8041362229090289  0.5570510614363854  1.0000
data_image74
_chemical_formula_structural       Sn4W4O16
_chemical_formula_sum              "Sn4 W4 O16"
_cell_length_a       7.620549
_cell_length_b       7.620549
_cell_length_c       7.620549
_cell_angle_alpha    90.0
_cell_angle_beta     90.0
_cell_angle_gamma    90.0

_space_group_name_H-M_alt    "P 1"
_space_group_IT_number       1

loop_
  _space_group_symop_operation_xyz
  'x, y, z'

loop_
  _atom_site_type_symbol
  _atom_site_label
  _atom_site_symmetry_multiplicity
  _atom_site_fract_x
  _atom_site_fract_y
  _atom_site_fract_z
  _atom_site_occupancy
  Sn  Sn1       1.0  0.5026584579481069  0.6382325273921012  0.8946965396397798  1.0000
  Sn  Sn2       1.0  0.8849433031273257  0.3994811305300698  0.221746965939045  1.0000
  Sn  Sn3       1.0  0.5603359048937648  0.9286738466267921  0.34599942448736454  1.0000
  Sn  Sn4       1.0  0.19203201182630775  0.20395169652271  0.6411495092447268  1.0000
  W   W1        1.0  0.33917547866063275  0.32142189900637363  0.2310326857701577  1.0000
  W   W2        1.0  0.9451075944397899  0.6374209889675972  0.6772048144513371  1.0000
  W   W3        1.0  0.6017809818144152  0.13208053430348615  0.8195198655590767  1.0000
  W   W4        1.0  0.014074753725790146  0.8837728035203167  0.30925311639239866  1.0000
  O   O1        1.0  0.49258418840509477  0.9416610820073645  0.912429082905799  1.0000
  O   O2        1.0  0.2556375395505647  0.04434409046347596  0.3792756635152741  1.0000
  O   O3        1.0  0.3624689441376577  0.3992366408940994  0.46244008675472636  1.0000
  O   O4        1.0  0.4737227508097294  0.5055938510054083  0.14770034967499165  1.0000
  O   O5        1.0  0.6867524179314666  0.030481647834292674  0.5509134330183828  1.0000
  O   O6        1.0  0.15346608441479348  0.31004103074813955  0.0747460455991296  1.0000
  O   O7        1.0  0.12493112963003628  0.527738131390729  0.7880931245819975  1.0000
  O   O8        1.0  0.9096044660018103  0.09161746956511663  0.2802842190034148  1.0000
  O   O9        1.0  0.8334091427616023  0.1762079903382839  0.8591090012935942  1.0000
  O   O10       1.0  0.758327044671929  0.6092279116671938  0.8679255793913745  1.0000
  O   O11       1.0  0.5730378320598619  0.18570232231307168  0.23006891056605022  1.0000
  O   O12       1.0  0.1503267847871541  0.8592353907983635  0.10965577387053747  1.0000
  O   O13       1.0  0.840414955243461  0.7384314168374215  0.32729199882218585  1.0000
  O   O14       1.0  0.9332383334782592  0.4135886761505511  0.5926625797609986  1.0000
  O   O15       1.0  0.4840917477070891  0.3250948049358456  0.8020076382318823  1.0000
  O   O16       1.0  0.09815922884614747  0.7831034137846441  0.5480029374413691  1.0000
data_image75
_chemical_formula_structural       Sn4W4O16
_chemical_formula_sum              "Sn4 W4 O16"
_cell_length_a       7.620549
_cell_length_b       7.620549
_cell_length_c       7.620549
_cell_angle_alpha    90.0
_cell_angle_beta     90.0
_cell_angle_gamma    90.0

_space_group_name_H-M_alt    "P 1"
_space_group_IT_number       1

loop_
  _space_group_symop_operation_xyz
  'x, y, z'

loop_
  _atom_site_type_symbol
  _atom_site_label
  _atom_site_symmetry_multiplicity
  _atom_site_fract_x
  _atom_site_fract_y
  _atom_site_fract_z
  _atom_site_occupancy
  Sn  Sn1       1.0  0.47502323985967465  0.6236697319232986  0.9192174610060171  1.0000
  Sn  Sn2       1.0  0.8866872403080122  0.4031028371527497  0.18358046210751117  1.0000
  Sn  Sn3       1.0  0.5149747767405093  0.8806114522498644  0.39680950000126614  1.0000
  Sn  Sn4       1.0  0.16067622724811517  0.2101075595003961  0.6372162225952615  1.0000
  W   W1        1.0  0.4055683075179477  0.30481932659857125  0.25433009975954884  1.0000
  W   W2        1.0  0.9277155004036822  0.6334273053651853  0.6351882184575789  1.0000
  W   W3        1.0  0.6118619188391895  0.10956861875397841  0.8423663321182608  1.0000
  W   W4        1.0  0.03652271980614774  0.9389238043489969  0.29277321964965763  1.0000
  O   O1        1.0  0.483956796292381  0.9309089746968116  0.9405395289253082  1.0000
  O   O2        1.0  0.2778810526218635  0.07408862494032041  0.38564486074231974  1.0000
  O   O3        1.0  0.2744209038041689  0.3904322088930583  0.43553481456041143  1.0000
  O   O4        1.0  0.5612944854774136  0.47803964790555353  0.24216564740464455  1.0000
  O   O5        1.0  0.747015219966032  0.0035361527155508923  0.636839740015584  1.0000
  O   O6        1.0  0.23904444741052155  0.2914543883031689  0.06775991122410913  1.0000
  O   O7        1.0  0.061764380311354686  0.5741816295503227  0.8127310646469221  1.0000
  O   O8        1.0  0.9389891434178936  0.15071495274001534  0.349033753247787  1.0000
  O   O9        1.0  0.7638693417488718  0.29831092204972376  0.9413745589372445  1.0000
  O   O10       1.0  0.708846417929548  0.7055731753253752  0.7052446567138896  1.0000
  O   O11       1.0  0.5498472022921044  0.1233503779825341  0.2361988527954786  1.0000
  O   O12       1.0  0.165311509630794  0.8475818781581509  0.11922814118808092  1.0000
  O   O13       1.0  0.8111926276568991  0.8578554019115128  0.22964166209114584  1.0000
  O   O14       1.0  0.8697331689677388  0.4222777600994725  0.4980699398047603  1.0000
  O   O15       1.0  0.4343141085150262  0.23202517058609942  0.7451050835632924  1.0000
  O   O16       1.0  0.04782333219402979  0.800747037413614  0.49962222084596486  1.0000
data_image76
_chemical_formula_structural       Sn4W4O16
_chemical_formula_sum              "Sn4 W4 O16"
_cell_length_a       7.620549
_cell_length_b       7.620549
_cell_length_c       7.620549
_cell_angle_alpha    90.0
_cell_angle_beta     90.0
_cell_angle_gamma    90.0

_space_group_name_H-M_alt    "P 1"
_space_group_IT_number       1

loop_
  _space_group_symop_operation_xyz
  'x, y, z'

loop_
  _atom_site_type_symbol
  _atom_site_label
  _atom_site_symmetry_multiplicity
  _atom_site_fract_x
  _atom_site_fract_y
  _atom_site_fract_z
  _atom_site_occupancy
  Sn  Sn1       1.0  0.4561771774387485  0.6276827540168043  0.9572263055065141  1.0000
  Sn  Sn2       1.0  0.9142440180787855  0.40467478755457664  0.10784866643042396  1.0000
  Sn  Sn3       1.0  0.5484486681321181  0.8914676950828785  0.3978069557139968  1.0000
  Sn  Sn4       1.0  0.14821351291324947  0.2756333055828747  0.6213889782191839  1.0000
  W   W1        1.0  0.44773128469050655  0.3049485844172011  0.2749487996914888  1.0000
  W   W2        1.0  0.9023060499165667  0.6304709669979477  0.6373404699927817  1.0000
  W   W3        1.0  0.565393955277805  0.08495044897129062  0.8379029715641884  1.0000
  W   W4        1.0  0.04374288732221898  0.9373962923650495  0.28811221035259194  1.0000
  O   O1        1.0  0.5249521963882707  0.8835757456563145  0.983974374220393  1.0000
  O   O2        1.0  0.2844612846078593  0.0037022424036686112  0.3747354567764849  1.0000
  O   O3        1.0  0.40896558793770826  0.40559219074779923  0.48265193618553615  1.0000
  O   O4        1.0  0.5625455806612635  0.5231489845778854  0.21806756350906165  1.0000
  O   O5        1.0  0.6862822376200836  0.9792574601934722  0.6495923357604692  1.0000
  O   O6        1.0  0.29109066764540725  0.3307443022564806  0.07242912648773213  1.0000
  O   O7        1.0  0.9960675899871849  0.4929328860582002  0.8133698770213953  1.0000
  O   O8        1.0  0.9488025110579513  0.12169157212954995  0.1949605349282799  1.0000
  O   O9        1.0  0.7191596733646503  0.22896759385172952  0.9572558066491917  1.0000
  O   O10       1.0  0.6897543533168926  0.6645090977810625  0.7526188639230214  1.0000
  O   O11       1.0  0.6357186304847481  0.17395775945858613  0.3543680940448005  1.0000
  O   O12       1.0  0.13442050996896837  0.8144541043535569  0.11961683086635347  1.0000
  O   O13       1.0  0.8316740372657795  0.7920996591093572  0.32328231102516763  1.0000
  O   O14       1.0  0.8914186298273494  0.50031635280958  0.4113947446989711  1.0000
  O   O15       1.0  0.3504661774428441  0.12688462118970034  0.7904617509253412  1.0000
  O   O16       1.0  0.02569965728067891  0.8455321890960129  0.5863444106222213  1.0000
data_image77
_chemical_formula_structural       Sn4W4O16
_chemical_formula_sum              "Sn4 W4 O16"
_cell_length_a       7.620549
_cell_length_b       7.620549
_cell_length_c       7.620549
_cell_angle_alpha    90.0
_cell_angle_beta     90.0
_cell_angle_gamma    90.0

_space_group_name_H-M_alt    "P 1"
_space_group_IT_number       1

loop_
  _space_group_symop_operation_xyz
  'x, y, z'

loop_
  _atom_site_type_symbol
  _atom_site_label
  _atom_site_symmetry_multiplicity
  _atom_site_fract_x
  _atom_site_fract_y
  _atom_site_fract_z
  _atom_site_occupancy
  Sn  Sn1       1.0  0.44260133062710705  0.6007954250253295  0.9686815668113629  1.0000
  Sn  Sn2       1.0  0.9126275510332417  0.37183196057239754  0.09968251371257167  1.0000
  Sn  Sn3       1.0  0.5690065404791538  0.8372253721308502  0.39754029823451387  1.0000
  Sn  Sn4       1.0  0.13299052795433172  0.2957704890278369  0.6042023664359973  1.0000
  W   W1        1.0  0.4739327335976713  0.34131500077772564  0.28518314846205284  1.0000
  W   W2        1.0  0.9060755969886113  0.6506978441179957  0.5879749871807898  1.0000
  W   W3        1.0  0.5366264009141832  0.05834138474745771  0.8651146368724311  1.0000
  W   W4        1.0  0.04062985650379791  0.9546350534770697  0.31745715902473876  1.0000
  O   O1        1.0  0.5214474974484833  0.9441433751366605  0.07376978255170481  1.0000
  O   O2        1.0  0.20251724461755485  0.1485253423778473  0.39482835621337986  1.0000
  O   O3        1.0  0.3660963875263726  0.4409414761593913  0.47299184041740966  1.0000
  O   O4        1.0  0.6439199577704964  0.4939391417296146  0.20037838889243387  1.0000
  O   O5        1.0  0.6474762066571924  0.9472406375291108  0.670032963104402  1.0000
  O   O6        1.0  0.34574867285722677  0.38517396417674926  0.08551325917470226  1.0000
  O   O7        1.0  0.04421152907231864  0.5784988855578448  0.7537447714439255  1.0000
  O   O8        1.0  0.9422614338101397  0.04625138828534303  0.1176470891723532  1.0000
  O   O9        1.0  0.6953032837498014  0.21223852075253044  0.914850023861505  1.0000
  O   O10       1.0  0.6905567798785932  0.6227005009961092  0.6636985340743229  1.0000
  O   O11       1.0  0.5986286523055364  0.1571718391085607  0.30577278030960703  1.0000
  O   O12       1.0  0.19892298752067106  0.8136919232203458  0.2278695043260167  1.0000
  O   O13       1.0  0.8355743818600766  0.7939395193401879  0.34144594960016933  1.0000
  O   O14       1.0  0.9454987938996634  0.47328974480021613  0.4116418737851216  1.0000
  O   O15       1.0  0.317604121447772  0.10867306790612072  0.8080603595565542  1.0000
  O   O16       1.0  0.07585845225921584  0.8592644760030165  0.5425302384082571  1.0000
data_image78
_chemical_formula_structural       Sn4W4O16
_chemical_formula_sum              "Sn4 W4 O16"
_cell_length_a       7.620549
_cell_length_b       7.620549
_cell_length_c       7.620549
_cell_angle_alpha    90.0
_cell_angle_beta     90.0
_cell_angle_gamma    90.0

_space_group_name_H-M_alt    "P 1"
_space_group_IT_number       1

loop_
  _space_group_symop_operation_xyz
  'x, y, z'

loop_
  _atom_site_type_symbol
  _atom_site_label
  _atom_site_symmetry_multiplicity
  _atom_site_fract_x
  _atom_site_fract_y
  _atom_site_fract_z
  _atom_site_occupancy
  Sn  Sn1       1.0  0.4311938433212155  0.6374700696824681  0.9458836342945426  1.0000
  Sn  Sn2       1.0  0.8657874856739565  0.3772673139513717  0.08266954016173597  1.0000
  Sn  Sn3       1.0  0.5261373112665827  0.8436068382371605  0.36670765773742026  1.0000
  Sn  Sn4       1.0  0.1739356528290151  0.31401398518915774  0.6475612407709513  1.0000
  W   W1        1.0  0.46288706645282834  0.30839070581968486  0.3147274256872378  1.0000
  W   W2        1.0  0.9269224478488558  0.6568544494294712  0.5994314643721853  1.0000
  W   W3        1.0  0.5550077927571558  0.04792005520563812  0.8265065066054723  1.0000
  W   W4        1.0  0.048584267940454895  0.9527227870172856  0.321800407626483  1.0000
  O   O1        1.0  0.5477576454355263  0.8831588111293295  0.00587310110057052  1.0000
  O   O2        1.0  0.1104630928340377  0.1662094647169581  0.4324678581340804  1.0000
  O   O3        1.0  0.39767698205845475  0.46036278511001427  0.4776642012338268  1.0000
  O   O4        1.0  0.5359791453278848  0.5665766258348983  0.22330347551930424  1.0000
  O   O5        1.0  0.7057356087025334  0.9463573029782876  0.6839767833232623  1.0000
  O   O6        1.0  0.32049477445367236  0.26319522213143887  0.13795932557921348  1.0000
  O   O7        1.0  0.016330784555586293  0.4977812741213844  0.8177086812272768  1.0000
  O   O8        1.0  0.972974240310819  0.08646072861860721  0.14002212383026377  1.0000
  O   O9        1.0  0.6561710415101195  0.2580101678247417  0.8710695232620079  1.0000
  O   O10       1.0  0.6941612896143653  0.6256076346270539  0.6330270228069801  1.0000
  O   O11       1.0  0.6013124012039767  0.12755277697355044  0.37872332553894844  1.0000
  O   O12       1.0  0.23707656582901326  0.8334423502209337  0.26855903948127585  1.0000
  O   O13       1.0  0.8534748927779343  0.7820412791099404  0.3322505932099197  1.0000
  O   O14       1.0  0.053580507995565296  0.5370133985483296  0.4320993343457965  1.0000
  O   O15       1.0  0.3523367235031552  0.09128448208465087  0.675345287080185  1.0000
  O   O16       1.0  0.03177111686529899  0.8638730898221244  0.5979675381897325  1.0000
data_image79
_chemical_formula_structural       Sn4W4O16
_chemical_formula_sum              "Sn4 W4 O16"
_cell_length_a       7.620549
_cell_length_b       7.620549
_cell_length_c       7.620549
_cell_angle_alpha    90.0
_cell_angle_beta     90.0
_cell_angle_gamma    90.0

_space_group_name_H-M_alt    "P 1"
_space_group_IT_number       1

loop_
  _space_group_symop_operation_xyz
  'x, y, z'

loop_
  _atom_site_type_symbol
  _atom_site_label
  _atom_site_symmetry_multiplicity
  _atom_site_fract_x
  _atom_site_fract_y
  _atom_site_fract_z
  _atom_site_occupancy
  Sn  Sn1       1.0  0.3888853926038652  0.6788225527323762  0.9744588936487572  1.0000
  Sn  Sn2       1.0  0.941125702439871  0.4035697387208309  0.09102342553088649  1.0000
  Sn  Sn3       1.0  0.5570651377325297  0.7963701008920612  0.37558177142243027  1.0000
  Sn  Sn4       1.0  0.14726063137195491  0.2919026926495608  0.7076703222496465  1.0000
  W   W1        1.0  0.43487555961809365  0.29589405764853766  0.30114688056387134  1.0000
  W   W2        1.0  0.9029763789451161  0.6640828819733129  0.5955534046687105  1.0000
  W   W3        1.0  0.6210283660797433  0.07943777782596033  0.7956766951686706  1.0000
  W   W4        1.0  0.018000805555506982  0.9461850869171264  0.31054616762408227  1.0000
  O   O1        1.0  0.5907840500877216  0.8663072756392058  0.9261955991144437  1.0000
  O   O2        1.0  0.09931071309414832  0.11703943976564561  0.4423234372364415  1.0000
  O   O3        1.0  0.34320433583676274  0.4033873832143502  0.4826214351008293  1.0000
  O   O4        1.0  0.6257147645308445  0.5016148082012588  0.25258414702881604  1.0000
  O   O5        1.0  0.7776569977403932  0.018830580872074787  0.6209983591001115  1.0000
  O   O6        1.0  0.2556898335040845  0.2442295438852589  0.15820942933721285  1.0000
  O   O7        1.0  0.954046425896065  0.5586394498502512  0.8182750976562904  1.0000
  O   O8        1.0  0.9664519617954074  0.050973222594009604  0.10118969574031914  1.0000
  O   O9        1.0  0.7286539296644999  0.24874900638502373  0.932666381079325  1.0000
  O   O10       1.0  0.6596965962250595  0.6685237635232197  0.6416469231916859  1.0000
  O   O11       1.0  0.5529485655714284  0.09822453443852165  0.2924220146464755  1.0000
  O   O12       1.0  0.17389856150681293  0.809896426031593  0.20312708176726385  1.0000
  O   O13       1.0  0.8313534917384803  0.801178590452142  0.39214672629435415  1.0000
  O   O14       1.0  0.9357022588501855  0.44460472477293456  0.47477193155059155  1.0000
  O   O15       1.0  0.4074705775474133  0.10909397330713974  0.7099278395178332  1.0000
  O   O16       1.0  0.09240525450569237  0.8093867846398903  0.5748111790627405  1.0000
data_image80
_chemical_formula_structural       Sn4W4O16
_chemical_formula_sum              "Sn4 W4 O16"
_cell_length_a       7.620549
_cell_length_b       7.620549
_cell_length_c       7.620549
_cell_angle_alpha    90.0
_cell_angle_beta     90.0
_cell_angle_gamma    90.0

_space_group_name_H-M_alt    "P 1"
_space_group_IT_number       1

loop_
  _space_group_symop_operation_xyz
  'x, y, z'

loop_
  _atom_site_type_symbol
  _atom_site_label
  _atom_site_symmetry_multiplicity
  _atom_site_fract_x
  _atom_site_fract_y
  _atom_site_fract_z
  _atom_site_occupancy
  Sn  Sn1       1.0  0.377607948131524  0.7047911828719708  0.9698627269279783  1.0000
  Sn  Sn2       1.0  0.9499650125350922  0.4126416785522452  0.13571179234528913  1.0000
  Sn  Sn3       1.0  0.5511063033325913  0.760046552774594  0.3881345336186475  1.0000
  Sn  Sn4       1.0  0.17602770315335814  0.20364995896664423  0.6743909833131677  1.0000
  W   W1        1.0  0.42497069295133993  0.30367255215133865  0.3010785233759456  1.0000
  W   W2        1.0  0.8825731108281836  0.634813335875042  0.6034361012854197  1.0000
  W   W3        1.0  0.6269829202112843  0.1141286739087366  0.823638430757126  1.0000
  W   W4        1.0  0.02837881316175106  0.9450655069414391  0.27569582485589833  1.0000
  O   O1        1.0  0.5866072336696762  0.8854026476510672  0.9632158142929763  1.0000
  O   O2        1.0  0.1815909070669526  0.09088482157830097  0.3852895749477301  1.0000
  O   O3        1.0  0.35977140005703995  0.39805332133818494  0.5061064590139861  1.0000
  O   O4        1.0  0.6206807619804517  0.45771487635886365  0.2899673081971385  1.0000
  O   O5        1.0  0.7351738953878127  0.08257433233498677  0.6015356128166436  1.0000
  O   O6        1.0  0.3062837457948242  0.3794161545358179  0.09406970258839671  1.0000
  O   O7        1.0  0.9909381445370852  0.5785964621100144  0.820363540710922  1.0000
  O   O8        1.0  0.9348070232079371  0.12736360087403575  0.1534449018722955  1.0000
  O   O9        1.0  0.6816141859626402  0.2931059036022649  0.9460326998214938  1.0000
  O   O10       1.0  0.6910751318761408  0.7347202925121332  0.6369890046714263  1.0000
  O   O11       1.0  0.5481367681109596  0.10418843193857955  0.29644796467883494  1.0000
  O   O12       1.0  0.2077079845456251  0.8788735535165118  0.13684406144500738  1.0000
  O   O13       1.0  0.8080421302525095  0.8216831513914745  0.29924137720892074  1.0000
  O   O14       1.0  0.8901985516985634  0.455210882627979  0.42555451811685235  1.0000
  O   O15       1.0  0.41899435216326586  0.20157256408849514  0.795226278661023  1.0000
  O   O16       1.0  0.049132242804582615  0.7966469216620089  0.5209335036573626  1.0000
data_image81
_chemical_formula_structural       Sn4W4O16
_chemical_formula_sum              "Sn4 W4 O16"
_cell_length_a       7.620549
_cell_length_b       7.620549
_cell_length_c       7.620549
_cell_angle_alpha    90.0
_cell_angle_beta     90.0
_cell_angle_gamma    90.0

_space_group_name_H-M_alt    "P 1"
_space_group_IT_number       1

loop_
  _space_group_symop_operation_xyz
  'x, y, z'

loop_
  _atom_site_type_symbol
  _atom_site_label
  _atom_site_symmetry_multiplicity
  _atom_site_fract_x
  _atom_site_fract_y
  _atom_site_fract_z
  _atom_site_occupancy
  Sn  Sn1       1.0  0.3524904940204888  0.6984433877600007  0.9412784401488938  1.0000
  Sn  Sn2       1.0  0.9007432732991966  0.42430956349625154  0.13280203196690854  1.0000
  Sn  Sn3       1.0  0.5545199351892262  0.7584985217827016  0.39974956164628944  1.0000
  Sn  Sn4       1.0  0.14814740693200934  0.19044115528579483  0.6012760030826982  1.0000
  W   W1        1.0  0.42437469126210475  0.34499703200297205  0.26599580249947524  1.0000
  W   W2        1.0  0.9245734984554878  0.6070366424723755  0.6603418094296998  1.0000
  W   W3        1.0  0.6610038879307416  0.1320675089415557  0.8590175105468287  1.0000
  W   W4        1.0  0.019295478514830045  0.9376740603755234  0.26129076409576074  1.0000
  O   O1        1.0  0.5667450518236005  0.9111040538639347  0.8895343878133155  1.0000
  O   O2        1.0  0.22569823925746485  0.011921157736261118  0.41335528577367553  1.0000
  O   O3        1.0  0.38413297651355854  0.35570559724554246  0.48866901308073585  1.0000
  O   O4        1.0  0.5223511819941642  0.5972035583612578  0.18678647089892958  1.0000
  O   O5        1.0  0.857862294639143  0.09624064964025583  0.7405377495680068  1.0000
  O   O6        1.0  0.23516511737070322  0.3892598445999271  0.15466027505840424  1.0000
  O   O7        1.0  0.9331554727137411  0.5139833581527253  0.8865643170009344  1.0000
  O   O8        1.0  0.9579244458576373  0.12633387815749986  0.10979431665846856  1.0000
  O   O9        1.0  0.662116746785195  0.2919942208403549  0.06049221709731335  1.0000
  O   O10       1.0  0.6942873595720587  0.606195959326489  0.6090587456873867  1.0000
  O   O11       1.0  0.50562129490231  0.11305367944036095  0.24152865929140466  1.0000
  O   O12       1.0  0.12362492375102119  0.793886493000956  0.12071378379210526  1.0000
  O   O13       1.0  0.8059478579216643  0.8367428332333684  0.3037202620086866  1.0000
  O   O14       1.0  0.013291158787795224  0.43726581825871325  0.506457794798894  1.0000
  O   O15       1.0  0.42399188385471737  0.2093616352148042  0.8038222568769696  1.0000
  O   O16       1.0  0.05177131223724185  0.7993528804933536  0.5611714925794046  1.0000
data_image82
_chemical_formula_structural       Sn4W4O16
_chemical_formula_sum              "Sn4 W4 O16"
_cell_length_a       7.620549
_cell_length_b       7.620549
_cell_length_c       7.620549
_cell_angle_alpha    90.0
_cell_angle_beta     90.0
_cell_angle_gamma    90.0

_space_group_name_H-M_alt    "P 1"
_space_group_IT_number       1

loop_
  _space_group_symop_operation_xyz
  'x, y, z'

loop_
  _atom_site_type_symbol
  _atom_site_label
  _atom_site_symmetry_multiplicity
  _atom_site_fract_x
  _atom_site_fract_y
  _atom_site_fract_z
  _atom_site_occupancy
  Sn  Sn1       1.0  0.3821728319825019  0.6831191243334918  0.8973022651287094  1.0000
  Sn  Sn2       1.0  0.8574416064354924  0.4611394807385542  0.1748244639742775  1.0000
  Sn  Sn3       1.0  0.5474591832303672  0.7598081710408813  0.41402502903576877  1.0000
  Sn  Sn4       1.0  0.13384613254932962  0.1867336087480837  0.666164364379837  1.0000
  W   W1        1.0  0.47120178624872966  0.4040132901392315  0.23008340236776778  1.0000
  W   W2        1.0  0.9183437902425104  0.5602789893748547  0.6573528750617188  1.0000
  W   W3        1.0  0.6710544652050098  0.13981737390842783  0.8847988014304087  1.0000
  W   W4        1.0  0.9949206916772114  0.8985449460446422  0.23732697621075502  1.0000
  O   O1        1.0  0.5215978270329149  0.9582066023184661  0.9876314043932287  1.0000
  O   O2        1.0  0.1345252049887157  0.9987390603136614  0.42021006033557406  1.0000
  O   O3        1.0  0.35755069582684895  0.5197170707345072  0.4325174467794084  1.0000
  O   O4        1.0  0.536160620646549  0.6343297465287474  0.12795388224040752  1.0000
  O   O5        1.0  0.8985858926087723  0.13966296756789306  0.7953188745326611  1.0000
  O   O6        1.0  0.29411040135908895  0.3995471659869282  0.0696639582777858  1.0000
  O   O7        1.0  0.911170288320939  0.5668158301626882  0.8895951233712169  1.0000
  O   O8        1.0  0.8921203992877399  0.061736551165983755  0.09787977046494843  1.0000
  O   O9        1.0  0.6262574986459157  0.3466202780978204  0.9772769058147776  1.0000
  O   O10       1.0  0.7149951392206397  0.5752526161466748  0.553275011966996  1.0000
  O   O11       1.0  0.547517723511642  0.18675986184940832  0.2959890735718689  1.0000
  O   O12       1.0  0.11839200486891466  0.7700515249643191  0.09139100056260455  1.0000
  O   O13       1.0  0.7995291862480264  0.7991858887006972  0.35402749235586506  1.0000
  O   O14       1.0  0.007215224239745803  0.37630699975683535  0.5251401569525421  1.0000
  O   O15       1.0  0.5334090858696464  0.08241341539572546  0.6810733731589196  1.0000
  O   O16       1.0  0.03014490915142365  0.7498935773875898  0.607972387243975  1.0000
data_image83
_chemical_formula_structural       Sn4W4O16
_chemical_formula_sum              "Sn4 W4 O16"
_cell_length_a       7.620549
_cell_length_b       7.620549
_cell_length_c       7.620549
_cell_angle_alpha    90.0
_cell_angle_beta     90.0
_cell_angle_gamma    90.0

_space_group_name_H-M_alt    "P 1"
_space_group_IT_number       1

loop_
  _space_group_symop_operation_xyz
  'x, y, z'

loop_
  _atom_site_type_symbol
  _atom_site_label
  _atom_site_symmetry_multiplicity
  _atom_site_fract_x
  _atom_site_fract_y
  _atom_site_fract_z
  _atom_site_occupancy
  Sn  Sn1       1.0  0.40491965856351986  0.6936249893220348  0.8785215171441526  1.0000
  Sn  Sn2       1.0  0.9082571052487723  0.39718538339206255  0.1598908480137164  1.0000
  Sn  Sn3       1.0  0.5592703533603133  0.8708036452080932  0.4335807323886217  1.0000
  Sn  Sn4       1.0  0.1611204620492913  0.169869886874668  0.8026673801328276  1.0000
  W   W1        1.0  0.45720296670320176  0.38460759875529205  0.1911755068305333  1.0000
  W   W2        1.0  0.8728519838598555  0.5659946302624731  0.6736407374744575  1.0000
  W   W3        1.0  0.6415556320545848  0.1083767085663369  0.8673256770584878  1.0000
  W   W4        1.0  0.003854983164699677  0.9244351142336761  0.19152024785389624  1.0000
  O   O1        1.0  0.5606419046802518  0.9139834063921275  0.016233135054395578  1.0000
  O   O2        1.0  0.10937399466667333  0.06433814531808509  0.3581768645308687  1.0000
  O   O3        1.0  0.32790758221868743  0.42771521337552715  0.37468187808090214  1.0000
  O   O4        1.0  0.6125186642836511  0.5681308798016065  0.22523644017128017  1.0000
  O   O5        1.0  0.8265843923246506  0.037745849996293476  0.7612855747293933  1.0000
  O   O6        1.0  0.30444179930573667  0.4539626104567724  0.996178213995203  1.0000
  O   O7        1.0  0.9129273596914085  0.5489316759894824  0.903015790677016  1.0000
  O   O8        1.0  0.8962475405145991  0.1003405314602901  0.05487320236802479  1.0000
  O   O9        1.0  0.6237837827319914  0.3301806790314065  0.9665707644562535  1.0000
  O   O10       1.0  0.6609262740623119  0.7065721861225344  0.668659625547499  1.0000
  O   O11       1.0  0.6221133542819255  0.2323648148231549  0.2783167519387791  1.0000
  O   O12       1.0  0.1763119927601926  0.8111679707497846  0.0637115598532109  1.0000
  O   O13       1.0  0.8583822158116134  0.7797460548652538  0.3299320923735372  1.0000
  O   O14       1.0  0.9608705585728193  0.3309764441496861  0.6724525787706699  1.0000
  O   O15       1.0  0.5085294134719617  0.07866467819498525  0.6554841104887881  1.0000
  O   O16       1.0  0.061677574946902736  0.6920487666136813  0.658708656305195  1.0000
data_image84
_chemical_formula_structural       Sn4W4O16
_chemical_formula_sum              "Sn4 W4 O16"
_cell_length_a       7.620549
_cell_length_b       7.620549
_cell_length_c       7.620549
_cell_angle_alpha    90.0
_cell_angle_beta     90.0
_cell_angle_gamma    90.0

_space_group_name_H-M_alt    "P 1"
_space_group_IT_number       1

loop_
  _space_group_symop_operation_xyz
  'x, y, z'

loop_
  _atom_site_type_symbol
  _atom_site_label
  _atom_site_symmetry_multiplicity
  _atom_site_fract_x
  _atom_site_fract_y
  _atom_site_fract_z
  _atom_site_occupancy
  Sn  Sn1       1.0  0.39489506577457417  0.6736407921810474  0.8761269559068673  1.0000
  Sn  Sn2       1.0  0.9041983647829593  0.397446848152696  0.20066430189437237  1.0000
  Sn  Sn3       1.0  0.6487024015546333  0.9639606400179606  0.4230068680385086  1.0000
  Sn  Sn4       1.0  0.11106152831618668  0.20416209424538745  0.8124417239781414  1.0000
  W   W1        1.0  0.40322074334858315  0.3513180925497428  0.2052343388947198  1.0000
  W   W2        1.0  0.884339872566331  0.6273401343976783  0.7268753192468789  1.0000
  W   W3        1.0  0.6333126964863266  0.04712925889655272  0.8060105887640778  1.0000
  W   W4        1.0  0.06655974843195311  0.9054597379882248  0.19434653089846426  1.0000
  O   O1        1.0  0.5549944364685748  0.9096425089257558  0.986619292583593  1.0000
  O   O2        1.0  0.12229207755060047  0.04245066020769282  0.37199107187231295  1.0000
  O   O3        1.0  0.23352954049944838  0.4070696668865755  0.3783562024253661  1.0000
  O   O4        1.0  0.47326500276482747  0.5746850644947266  0.12134001911551764  1.0000
  O   O5        1.0  0.8338408229273119  0.011913055787368185  0.6211216074234304  1.0000
  O   O6        1.0  0.2350823469042178  0.31462034127353505  0.027361023875050062  1.0000
  O   O7        1.0  0.8249211599604469  0.5893725336847434  0.937210859501367  1.0000
  O   O8        1.0  0.9220798161008865  0.06562497958942348  0.048961064871088845  1.0000
  O   O9        1.0  0.6374247356408809  0.2672498816761112  0.8751183239160456  1.0000
  O   O10       1.0  0.666149500069708  0.7014896017579565  0.5824759975176341  1.0000
  O   O11       1.0  0.5874173966992073  0.21560124404004974  0.2743857481303435  1.0000
  O   O12       1.0  0.22108611413562507  0.8076451843834581  0.05847513246252954  1.0000
  O   O13       1.0  0.9091422215059962  0.7649653892265182  0.26765043895742124  1.0000
  O   O14       1.0  0.9440382169199343  0.4115360636371  0.6646705000863896  1.0000
  O   O15       1.0  0.4747406075004736  0.020088775105651165  0.6448775132357341  1.0000
  O   O16       1.0  0.05299652090621576  0.7670273647574082  0.7619487451273292  1.0000
data_image85
_chemical_formula_structural       Sn4W4O16
_chemical_formula_sum              "Sn4 W4 O16"
_cell_length_a       7.620549
_cell_length_b       7.620549
_cell_length_c       7.620549
_cell_angle_alpha    90.0
_cell_angle_beta     90.0
_cell_angle_gamma    90.0

_space_group_name_H-M_alt    "P 1"
_space_group_IT_number       1

loop_
  _space_group_symop_operation_xyz
  'x, y, z'

loop_
  _atom_site_type_symbol
  _atom_site_label
  _atom_site_symmetry_multiplicity
  _atom_site_fract_x
  _atom_site_fract_y
  _atom_site_fract_z
  _atom_site_occupancy
  Sn  Sn1       1.0  0.4274359603277084  0.6658329752877362  0.900228207378846  1.0000
  Sn  Sn2       1.0  0.8471610864379272  0.37990399935808755  0.20194838137061064  1.0000
  Sn  Sn3       1.0  0.6783529564812097  0.9446192036816747  0.37632520237493405  1.0000
  Sn  Sn4       1.0  0.07177291643397718  0.1752810782331217  0.7049735264843432  1.0000
  W   W1        1.0  0.3805488411555294  0.32838066747885064  0.24085808187233304  1.0000
  W   W2        1.0  0.9308439968712077  0.667244395619237  0.751451040889243  1.0000
  W   W3        1.0  0.6036323804042971  0.05955298270361677  0.8055015198036826  1.0000
  W   W4        1.0  0.0835377052556936  0.9060972727077119  0.18718957907828768  1.0000
  O   O1        1.0  0.5657939546762765  0.9002359217438842  0.9791451154239628  1.0000
  O   O2        1.0  0.2065840429342688  0.09216595984195691  0.27615534243816864  1.0000
  O   O3        1.0  0.2361366861586359  0.43451937761901643  0.3768761487274499  1.0000
  O   O4        1.0  0.4922228453383012  0.5256264055894437  0.1738842700481075  1.0000
  O   O5        1.0  0.8262714005168528  0.04397653476788654  0.7400015866171489  1.0000
  O   O6        1.0  0.24653162710731902  0.31205737150010293  0.01641491732805976  1.0000
  O   O7        1.0  0.9353993888577307  0.5777113550480806  0.9921208297602044  1.0000
  O   O8        1.0  0.8911373320308216  0.06705259048255785  0.12320349287224756  1.0000
  O   O9        1.0  0.5291768492656154  0.2548420263029859  0.9234222888379134  1.0000
  O   O10       1.0  0.6905753482881722  0.7531936940836523  0.681476346547511  1.0000
  O   O11       1.0  0.5389938677238428  0.14903014011923701  0.2846508081932164  1.0000
  O   O12       1.0  0.2432497022570459  0.809457247649005  0.04621306399727059  1.0000
  O   O13       1.0  0.9700030914692764  0.8326622163159791  0.38139416325838355  1.0000
  O   O14       1.0  0.9279922959629644  0.47953943855602765  0.598340624411341  1.0000
  O   O15       1.0  0.42917265565818163  0.006769638435777744  0.6564158510583251  1.0000
  O   O16       1.0  0.08485713003094464  0.8390770689568227  0.7086033144809104  1.0000
data_image86
_chemical_formula_structural       Sn4W4O16
_chemical_formula_sum              "Sn4 W4 O16"
_cell_length_a       7.620549
_cell_length_b       7.620549
_cell_length_c       7.620549
_cell_angle_alpha    90.0
_cell_angle_beta     90.0
_cell_angle_gamma    90.0

_space_group_name_H-M_alt    "P 1"
_space_group_IT_number       1

loop_
  _space_group_symop_operation_xyz
  'x, y, z'

loop_
  _atom_site_type_symbol
  _atom_site_label
  _atom_site_symmetry_multiplicity
  _atom_site_fract_x
  _atom_site_fract_y
  _atom_site_fract_z
  _atom_site_occupancy
  Sn  Sn1       1.0  0.43844488881445454  0.6492453548450173  0.8974507130548954  1.0000
  Sn  Sn2       1.0  0.8024264375662866  0.3286527119458995  0.16656435096419717  1.0000
  Sn  Sn3       1.0  0.6394383968252321  0.9487496004755024  0.3005296816947709  1.0000
  Sn  Sn4       1.0  0.11806807526357743  0.12410318194793776  0.7244117059271018  1.0000
  W   W1        1.0  0.3596358250075918  0.32106938635279136  0.22383215521349695  1.0000
  W   W2        1.0  0.9201521214151458  0.7295588121444844  0.7539448730857709  1.0000
  W   W3        1.0  0.6243636302469454  0.08010196501720378  0.844734592947684  1.0000
  W   W4        1.0  0.09216026241569542  0.8886842473460052  0.20204033607743327  1.0000
  O   O1        1.0  0.5724178101947576  0.9335162535225755  0.06524646420119481  1.0000
  O   O2        1.0  0.233839229883992  0.061476177918582287  0.2675947772754925  1.0000
  O   O3        1.0  0.2811978445838316  0.4030456831562966  0.4322939156496731  1.0000
  O   O4        1.0  0.47606139511062995  0.5132441427650904  0.1258122831324332  1.0000
  O   O5        1.0  0.7997669578361136  0.07554905511396066  0.6841635295915681  1.0000
  O   O6        1.0  0.18274793107409248  0.3028341316886801  0.03855945880477645  1.0000
  O   O7        1.0  0.9688563463071608  0.7343293459675031  0.9906045925156444  1.0000
  O   O8        1.0  0.9652002578171481  0.02880057522926105  0.0737351218874292  1.0000
  O   O9        1.0  0.6903649117464227  0.30285411052612077  0.9286004004596138  1.0000
  O   O10       1.0  0.6851660893315081  0.7929105756143573  0.7318059542973577  1.0000
  O   O11       1.0  0.5354527949759206  0.18059316268761555  0.315839041083779  1.0000
  O   O12       1.0  0.26172787258530916  0.7354155214701249  0.1057236730521436  1.0000
  O   O13       1.0  0.966837714645466  0.7538162220180158  0.3517935688798417  1.0000
  O   O14       1.0  0.891487822507981  0.5050261792392033  0.6817896781969922  1.0000
  O   O15       1.0  0.41235724591250017  0.06618608984168971  0.7184143345171783  1.0000
  O   O16       1.0  0.09005607900864332  0.8720951558548584  0.6727825026761197  1.0000
data_image87
_chemical_formula_structural       Sn4W4O16
_chemical_formula_sum              "Sn4 W4 O16"
_cell_length_a       7.620549
_cell_length_b       7.620549
_cell_length_c       7.620549
_cell_angle_alpha    90.0
_cell_angle_beta     90.0
_cell_angle_gamma    90.0

_space_group_name_H-M_alt    "P 1"
_space_group_IT_number       1

loop_
  _space_group_symop_operation_xyz
  'x, y, z'

loop_
  _atom_site_type_symbol
  _atom_site_label
  _atom_site_symmetry_multiplicity
  _atom_site_fract_x
  _atom_site_fract_y
  _atom_site_fract_z
  _atom_site_occupancy
  Sn  Sn1       1.0  0.37094727000296107  0.6919578998155299  0.9122702059202059  1.0000
  Sn  Sn2       1.0  0.8144950804146044  0.32588781349434004  0.1978441327330018  1.0000
  Sn  Sn3       1.0  0.6475628360548196  0.9193081054089968  0.2920916623502325  1.0000
  Sn  Sn4       1.0  0.1464127214637896  0.158183474680296  0.6921012530983385  1.0000
  W   W1        1.0  0.3369199805833801  0.3075795580961341  0.25266059499233556  1.0000
  W   W2        1.0  0.8905829211577517  0.7252877168628447  0.7608623821416582  1.0000
  W   W3        1.0  0.6788488990992055  0.09837307097094254  0.8093173016341728  1.0000
  W   W4        1.0  0.06973521489476098  0.8641397467521567  0.18937211816184346  1.0000
  O   O1        1.0  0.5897464712269301  0.9474338852145334  0.9960317881741836  1.0000
  O   O2        1.0  0.1843298822363621  0.07181449493223947  0.31573092249533974  1.0000
  O   O3        1.0  0.21148525873117507  0.390584269307674  0.4302378223639327  1.0000
  O   O4        1.0  0.5209052137783103  0.4828584226251078  0.1720285005242339  1.0000
  O   O5        1.0  0.8734928721892474  0.0802225753930553  0.6977335500479783  1.0000
  O   O6        1.0  0.2652284527972715  0.3098792205332938  0.04126760299910141  1.0000
  O   O7        1.0  0.9744170753182513  0.6388084197398514  0.9761844595638075  1.0000
  O   O8        1.0  0.9211823335288075  0.02593451960367643  0.1260118920502947  1.0000
  O   O9        1.0  0.7999113585118698  0.2841461824438551  0.9109175688588314  1.0000
  O   O10       1.0  0.6729646639649338  0.7750245857011474  0.7096487884445696  1.0000
  O   O11       1.0  0.5610800703991966  0.20275326325603654  0.3256719407523044  1.0000
  O   O12       1.0  0.3116362436714515  0.7689193311244236  0.1609297830255508  1.0000
  O   O13       1.0  0.913500206226829  0.7336148105297409  0.3359016584968494  1.0000
  O   O14       1.0  0.9683787743380983  0.5333828917653677  0.6535097749271453  1.0000
  O   O15       1.0  0.5309365637092203  0.09131982165665649  0.6390207568008954  1.0000
  O   O16       1.0  0.10767289481895936  0.8837171134838789  0.8125753591509558  1.0000
data_image88
_chemical_formula_structural       Sn4W4O16
_chemical_formula_sum              "Sn4 W4 O16"
_cell_length_a       7.620549
_cell_length_b       7.620549
_cell_length_c       7.620549
_cell_angle_alpha    90.0
_cell_angle_beta     90.0
_cell_angle_gamma    90.0

_space_group_name_H-M_alt    "P 1"
_space_group_IT_number       1

loop_
  _space_group_symop_operation_xyz
  'x, y, z'

loop_
  _atom_site_type_symbol
  _atom_site_label
  _atom_site_symmetry_multiplicity
  _atom_site_fract_x
  _atom_site_fract_y
  _atom_site_fract_z
  _atom_site_occupancy
  Sn  Sn1       1.0  0.3694225080978632  0.6965525694712121  0.8986159058897477  1.0000
  Sn  Sn2       1.0  0.787910215503107  0.3372888518450897  0.21528824335224558  1.0000
  Sn  Sn3       1.0  0.5991087933398432  0.9003164426190852  0.261133454310354  1.0000
  Sn  Sn4       1.0  0.16662972030892653  0.18173895096069975  0.6850138650582294  1.0000
  W   W1        1.0  0.3703951420469419  0.3311807921146647  0.24089470976093652  1.0000
  W   W2        1.0  0.9276978100142931  0.7171234652813748  0.7555542409624444  1.0000
  W   W3        1.0  0.6534294745262554  0.08042886419573818  0.7998478812624923  1.0000
  W   W4        1.0  0.06215589410594924  0.8717020153393884  0.21194589592340662  1.0000
  O   O1        1.0  0.5339194090231552  0.9173426589569147  0.9278581387881656  1.0000
  O   O2        1.0  0.14809444908148858  0.08549868638559177  0.28864208622582876  1.0000
  O   O3        1.0  0.2878074219484533  0.35772754293372194  0.46521863904605565  1.0000
  O   O4        1.0  0.5076676509744729  0.523278067806763  0.21585896643814687  1.0000
  O   O5        1.0  0.8643712777004815  0.9797821573992637  0.7028684074198273  1.0000
  O   O6        1.0  0.2607960475033235  0.3078161277106271  0.042555207125159804  1.0000
  O   O7        1.0  0.9789970117952227  0.7159213643041604  0.024613376377923712  1.0000
  O   O8        1.0  0.8385940071857864  0.029410728987476098  0.17351941703557766  1.0000
  O   O9        1.0  0.7025875990036997  0.2580911401834166  0.9453416587431104  1.0000
  O   O10       1.0  0.7214117310874063  0.6185050257233229  0.7507144631580187  1.0000
  O   O11       1.0  0.5463423010651569  0.1570535413840352  0.2827987585391968  1.0000
  O   O12       1.0  0.31035321408615046  0.818714801602439  0.15188727691993575  1.0000
  O   O13       1.0  0.006574409261482783  0.8105610935110554  0.4342027675662644  1.0000
  O   O14       1.0  0.0480645016525593  0.4610427760175015  0.74718207091361  1.0000
  O   O15       1.0  0.4583742756888838  0.16099178432860248  0.7095762617474889  1.0000
  O   O16       1.0  0.17187856791876066  0.7896184014274807  0.737536348253528  1.0000
data_image89
_chemical_formula_structural       Sn4W4O16
_chemical_formula_sum              "Sn4 W4 O16"
_cell_length_a       7.620549
_cell_length_b       7.620549
_cell_length_c       7.620549
_cell_angle_alpha    90.0
_cell_angle_beta     90.0
_cell_angle_gamma    90.0

_space_group_name_H-M_alt    "P 1"
_space_group_IT_number       1

loop_
  _space_group_symop_operation_xyz
  'x, y, z'

loop_
  _atom_site_type_symbol
  _atom_site_label
  _atom_site_symmetry_multiplicity
  _atom_site_fract_x
  _atom_site_fract_y
  _atom_site_fract_z
  _atom_site_occupancy
  Sn  Sn1       1.0  0.32337509995298247  0.6982101069569862  0.8827105139078391  1.0000
  Sn  Sn2       1.0  0.8260236938065678  0.32105087995780396  0.22141573592850067  1.0000
  Sn  Sn3       1.0  0.6005380853417266  0.8193909672513239  0.21297623247337383  1.0000
  Sn  Sn4       1.0  0.15354322411699883  0.2590719873957601  0.6259167402300593  1.0000
  W   W1        1.0  0.3689206171459767  0.33095657415379665  0.26473980698109295  1.0000
  W   W2        1.0  0.9496523150334373  0.6821132826463916  0.7519302660430662  1.0000
  W   W3        1.0  0.6358935234833475  0.11284597138935286  0.8287143131435422  1.0000
  W   W4        1.0  0.054877552218610015  0.8858600643002934  0.23514170564367648  1.0000
  O   O1        1.0  0.5703892386256734  0.9418346121932051  0.9844152691287479  1.0000
  O   O2        1.0  0.1545671114204442  0.08137791029446564  0.3505833861791461  1.0000
  O   O3        1.0  0.2989182847617948  0.41534830192334343  0.48163210290629854  1.0000
  O   O4        1.0  0.5687107078846237  0.4368308014648654  0.2598012335110701  1.0000
  O   O5        1.0  0.8252623666896722  0.005473610923056664  0.7331553745237529  1.0000
  O   O6        1.0  0.30381149890591286  0.39753118024277856  0.034166350838162864  1.0000
  O   O7        1.0  0.9787267035035538  0.7675589066723952  0.007009302471929546  1.0000
  O   O8        1.0  0.8690006337636986  0.04403998709059653  0.2147459139866051  1.0000
  O   O9        1.0  0.7380038770310455  0.307265521141698  0.9559098369687559  1.0000
  O   O10       1.0  0.7476949137709581  0.6075291615672334  0.7039885743028484  1.0000
  O   O11       1.0  0.5158715828545299  0.1265811981925144  0.2326408889321291  1.0000
  O   O12       1.0  0.2418616277763932  0.7542878909826403  0.14133510333567362  1.0000
  O   O13       1.0  0.02886723461361429  0.7302929823153468  0.4090322976257163  1.0000
  O   O14       1.0  0.05170247888962549  0.4497735625158131  0.7796724805106167  1.0000
  O   O15       1.0  0.4977223807151586  0.13831239918918162  0.6233298434417412  1.0000
  O   O16       1.0  0.1846641089672174  0.7911431434986714  0.6961269897075225  1.0000
data_image90
_chemical_formula_structural       Sn4W4O16
_chemical_formula_sum              "Sn4 W4 O16"
_cell_length_a       7.620549
_cell_length_b       7.620549
_cell_length_c       7.620549
_cell_angle_alpha    90.0
_cell_angle_beta     90.0
_cell_angle_gamma    90.0

_space_group_name_H-M_alt    "P 1"
_space_group_IT_number       1

loop_
  _space_group_symop_operation_xyz
  'x, y, z'

loop_
  _atom_site_type_symbol
  _atom_site_label
  _atom_site_symmetry_multiplicity
  _atom_site_fract_x
  _atom_site_fract_y
  _atom_site_fract_z
  _atom_site_occupancy
  Sn  Sn1       1.0  0.319624957216812  0.672381660694563  0.8897715388098483  1.0000
  Sn  Sn2       1.0  0.8527933900056428  0.2961605066310692  0.1911931337078389  1.0000
  Sn  Sn3       1.0  0.5990713203021386  0.8012997381232033  0.20785103061265625  1.0000
  Sn  Sn4       1.0  0.10245664138573866  0.26126114747449036  0.6018519115778935  1.0000
  W   W1        1.0  0.4200448351814604  0.35130293759899617  0.2575460914172135  1.0000
  W   W2        1.0  0.9199166541349652  0.7146398471763631  0.7611923953577467  1.0000
  W   W3        1.0  0.6638637601825903  0.1024600127164923  0.8473608146635361  1.0000
  W   W4        1.0  0.04455656435697031  0.8481017482557087  0.24090306893320615  1.0000
  O   O1        1.0  0.5356104838463983  0.9276924868001508  0.9794176798963311  1.0000
  O   O2        1.0  0.12280678073911402  0.07246919183511442  0.4249982989484964  1.0000
  O   O3        1.0  0.26432921803153087  0.42048443803010127  0.43106447320860897  1.0000
  O   O4        1.0  0.5755803926748623  0.521329768755715  0.25374828269226024  1.0000
  O   O5        1.0  0.8119755992484977  0.9981022921174686  0.6970532668747482  1.0000
  O   O6        1.0  0.28139774705171683  0.41182723599130455  0.0663348616591128  1.0000
  O   O7        1.0  0.9322033619689047  0.7793516026341649  0.9979446585243489  1.0000
  O   O8        1.0  0.935236723580626  0.04865385857731086  0.12688070068399168  1.0000
  O   O9        1.0  0.7018515163288168  0.3167768812529985  0.9712727563910554  1.0000
  O   O10       1.0  0.7005802963176513  0.6422547908295122  0.6427074751735196  1.0000
  O   O11       1.0  0.5806412089213967  0.1715817769727617  0.31768606341544625  1.0000
  O   O12       1.0  0.25955248088040994  0.7989278400746008  0.12408007904681179  1.0000
  O   O13       1.0  0.9642709438681193  0.7003754154914257  0.4063173603138675  1.0000
  O   O14       1.0  0.08505184720388811  0.5251895579856419  0.7280935874793962  1.0000
  O   O15       1.0  0.4880390663672088  0.25338070862542283  0.7660150961490687  1.0000
  O   O16       1.0  0.12008607110732661  0.8370318275394844  0.739817471859534  1.0000
data_image91
_chemical_formula_structural       Sn4W4O16
_chemical_formula_sum              "Sn4 W4 O16"
_cell_length_a       7.620549
_cell_length_b       7.620549
_cell_length_c       7.620549
_cell_angle_alpha    90.0
_cell_angle_beta     90.0
_cell_angle_gamma    90.0

_space_group_name_H-M_alt    "P 1"
_space_group_IT_number       1

loop_
  _space_group_symop_operation_xyz
  'x, y, z'

loop_
  _atom_site_type_symbol
  _atom_site_label
  _atom_site_symmetry_multiplicity
  _atom_site_fract_x
  _atom_site_fract_y
  _atom_site_fract_z
  _atom_site_occupancy
  Sn  Sn1       1.0  0.3041397452497715  0.6713584376929149  0.8620070823719546  1.0000
  Sn  Sn2       1.0  0.8897875112384803  0.31736846100802024  0.2185946493469904  1.0000
  Sn  Sn3       1.0  0.6533113649155886  0.8376484924158498  0.19600283854902423  1.0000
  Sn  Sn4       1.0  0.09911081794753442  0.19283224083325548  0.5945893770466903  1.0000
  W   W1        1.0  0.4544797737462406  0.38182282838352055  0.2699129181243864  1.0000
  W   W2        1.0  0.906527261862329  0.721367963859829  0.7539298476341652  1.0000
  W   W3        1.0  0.6088145935267264  0.10360378828938281  0.841610442218268  1.0000
  W   W4        1.0  0.059403338449682375  0.8563804398497101  0.2403015431697938  1.0000
  O   O1        1.0  0.5090388947661203  0.9029932540445147  0.9872777909571163  1.0000
  O   O2        1.0  0.17842952478775945  0.041029682893131136  0.3465030667542597  1.0000
  O   O3        1.0  0.2580013899299511  0.3326425503453574  0.3936219262902848  1.0000
  O   O4        1.0  0.5695883572074699  0.5975304236837764  0.30635098566773905  1.0000
  O   O5        1.0  0.8041609198996488  0.008039981568268037  0.7648027064062461  1.0000
  O   O6        1.0  0.39158698750240295  0.2943545837310429  0.07478702352640942  1.0000
  O   O7        1.0  0.8208827294380066  0.696113814417407  0.0022908496109914633  1.0000
  O   O8        1.0  0.8908139206492198  0.025528455993886645  0.17236124253389734  1.0000
  O   O9        1.0  0.7627989018855611  0.26105490686139166  0.9493462964794135  1.0000
  O   O10       1.0  0.7013887768106648  0.6718663875203068  0.7092311418954834  1.0000
  O   O11       1.0  0.6244335954546544  0.21898232978718893  0.366655533181656  1.0000
  O   O12       1.0  0.15776883160918564  0.6447102608738327  0.1533915860425051  1.0000
  O   O13       1.0  0.8409590521104775  0.7801775733805281  0.38166693378508404  1.0000
  O   O14       1.0  0.002261261543726257  0.540789821616438  0.6709823073415316  1.0000
  O   O15       1.0  0.4331381954149108  0.1343512113314732  0.6798028874262689  1.0000
  O   O16       1.0  0.09735635313465196  0.8422477022523164  0.8862291981740242  1.0000
data_image92
_chemical_formula_structural       Sn4W4O16
_chemical_formula_sum              "Sn4 W4 O16"
_cell_length_a       7.620549
_cell_length_b       7.620549
_cell_length_c       7.620549
_cell_angle_alpha    90.0
_cell_angle_beta     90.0
_cell_angle_gamma    90.0

_space_group_name_H-M_alt    "P 1"
_space_group_IT_number       1

loop_
  _space_group_symop_operation_xyz
  'x, y, z'

loop_
  _atom_site_type_symbol
  _atom_site_label
  _atom_site_symmetry_multiplicity
  _atom_site_fract_x
  _atom_site_fract_y
  _atom_site_fract_z
  _atom_site_occupancy
  Sn  Sn1       1.0  0.2862895510778225  0.674107196074304  0.8752416526520063  1.0000
  Sn  Sn2       1.0  0.8740047211717497  0.3474627773720741  0.16655409431800847  1.0000
  Sn  Sn3       1.0  0.6686518980752592  0.8701748428715278  0.27860426412417616  1.0000
  Sn  Sn4       1.0  0.11818261754164132  0.20945673071795048  0.6243340336575822  1.0000
  W   W1        1.0  0.44019200512779655  0.35168752799833797  0.2706601481216364  1.0000
  W   W2        1.0  0.8384470249665966  0.7242886712016543  0.7419594235582078  1.0000
  W   W3        1.0  0.5984994762653577  0.10685020016913441  0.8906724381975551  1.0000
  W   W4        1.0  0.10031000319951278  0.8533597823509507  0.1668244611170567  1.0000
  O   O1        1.0  0.5829692814153714  0.9163588688109283  0.028823327527523656  1.0000
  O   O2        1.0  0.26584663848091805  0.9602106703688663  0.2607784145234402  1.0000
  O   O3        1.0  0.2769142478426765  0.3077502280932501  0.4136466502102377  1.0000
  O   O4        1.0  0.6234647806913147  0.5306854482151941  0.22479058673105798  1.0000
  O   O5        1.0  0.7863188952768175  0.9622778242423623  0.7422478908786225  1.0000
  O   O6        1.0  0.4405699660763309  0.22082950379184998  0.07540787525595419  1.0000
  O   O7        1.0  0.8244812469121858  0.6759309187010815  0.9772133095338722  1.0000
  O   O8        1.0  0.90922740106157  0.05110673664761234  0.16951508787492528  1.0000
  O   O9        1.0  0.7779951906527722  0.2672458561063098  0.9033125604459704  1.0000
  O   O10       1.0  0.6415760513552504  0.5814637879436831  0.6571524719532139  1.0000
  O   O11       1.0  0.6345579555076519  0.21942402866578986  0.3772190614855957  1.0000
  O   O12       1.0  0.2267407093417062  0.6256532886830102  0.13919258137674373  1.0000
  O   O13       1.0  0.9701118395498947  0.7354964580855131  0.3437031574614147  1.0000
  O   O14       1.0  0.08140472695243198  0.5868417631818881  0.7236736631484975  1.0000
  O   O15       1.0  0.43342839036426933  0.14795717568324127  0.7337280542925319  1.0000
  O   O16       1.0  0.14620597405843538  0.8970475181294207  0.9370239113502944  1.0000
data_image93
_chemical_formula_structural       Sn4W4O16
_chemical_formula_sum              "Sn4 W4 O16"
_cell_length_a       7.620549
_cell_length_b       7.620549
_cell_length_c       7.620549
_cell_angle_alpha    90.0
_cell_angle_beta     90.0
_cell_angle_gamma    90.0

_space_group_name_H-M_alt    "P 1"
_space_group_IT_number       1

loop_
  _space_group_symop_operation_xyz
  'x, y, z'

loop_
  _atom_site_type_symbol
  _atom_site_label
  _atom_site_symmetry_multiplicity
  _atom_site_fract_x
  _atom_site_fract_y
  _atom_site_fract_z
  _atom_site_occupancy
  Sn  Sn1       1.0  0.2897441447748262  0.6681218596813293  0.8568813088687034  1.0000
  Sn  Sn2       1.0  0.8791424410040328  0.36649773187911117  0.14495217073194114  1.0000
  Sn  Sn3       1.0  0.6397474404282019  0.8332657013686262  0.28677380582420864  1.0000
  Sn  Sn4       1.0  0.1420956184976372  0.2200656736482355  0.6579994975778404  1.0000
  W   W1        1.0  0.4676456799497395  0.3008213592836368  0.297750483071845  1.0000
  W   W2        1.0  0.8430330388341647  0.7398113787946492  0.7396806419134389  1.0000
  W   W3        1.0  0.5910863582421932  0.08930465246708433  0.8749150027263891  1.0000
  W   W4        1.0  0.09717854724140884  0.8810521140904518  0.17046554253430732  1.0000
  O   O1        1.0  0.557927477557544  0.9255358024802594  0.028036574374011893  1.0000
  O   O2        1.0  0.2959326370862222  0.9298792214960797  0.30166425630879523  1.0000
  O   O3        1.0  0.2671691409133025  0.3690217230010058  0.4144743432646173  1.0000
  O   O4        1.0  0.5343112451656409  0.5412552877863301  0.27406781551305087  1.0000
  O   O5        1.0  0.7555390698373579  0.9622394451745714  0.7266533043995977  1.0000
  O   O6        1.0  0.3926836971297809  0.24947813398052787  0.08953677487650076  1.0000
  O   O7        1.0  0.8234112405263703  0.7253356643493316  0.981905268984214  1.0000
  O   O8        1.0  0.961327060638003  0.12274526763685145  0.06796863779364215  1.0000
  O   O9        1.0  0.7069971325619218  0.30728301750421755  0.9244481890926795  1.0000
  O   O10       1.0  0.6592911680326967  0.6157118253125382  0.6794805889884298  1.0000
  O   O11       1.0  0.682821408832949  0.1633045543403101  0.32882456271080956  1.0000
  O   O12       1.0  0.16102671860040485  0.6492118844710512  0.12199528011675467  1.0000
  O   O13       1.0  0.922994185267895  0.8641110017168397  0.3289929204595334  1.0000
  O   O14       1.0  0.030104036281779215  0.6065257163561091  0.6754546053516827  1.0000
  O   O15       1.0  0.4015025761120996  0.10299372458900952  0.7191019400057914  1.0000
  O   O16       1.0  0.19184266944350514  0.9255341998374792  0.8899551137817094  1.0000
data_image94
_chemical_formula_structural       Sn4W4O16
_chemical_formula_sum              "Sn4 W4 O16"
_cell_length_a       7.620549
_cell_length_b       7.620549
_cell_length_c       7.620549
_cell_angle_alpha    90.0
_cell_angle_beta     90.0
_cell_angle_gamma    90.0

_space_group_name_H-M_alt    "P 1"
_space_group_IT_number       1

loop_
  _space_group_symop_operation_xyz
  'x, y, z'

loop_
  _atom_site_type_symbol
  _atom_site_label
  _atom_site_symmetry_multiplicity
  _atom_site_fract_x
  _atom_site_fract_y
  _atom_site_fract_z
  _atom_site_occupancy
  Sn  Sn1       1.0  0.30743353252403127  0.6549677706247713  0.8565150468135433  1.0000
  Sn  Sn2       1.0  0.8479044050205544  0.3723730368259523  0.13764270653325444  1.0000
  Sn  Sn3       1.0  0.5545376197429348  0.8115408367615009  0.2755312504554447  1.0000
  Sn  Sn4       1.0  0.17124949142925278  0.16007398980501025  0.6466718450846861  1.0000
  W   W1        1.0  0.46640485709976254  0.314144421537703  0.3242686045334014  1.0000
  W   W2        1.0  0.8701938112754464  0.725937150821206  0.7894570657341108  1.0000
  W   W3        1.0  0.6091953795365475  0.10000817314905636  0.8361627827157839  1.0000
  W   W4        1.0  0.09200397479106615  0.9311911345896398  0.1397870918629516  1.0000
  O   O1        1.0  0.5403793580916256  0.9121712844271102  0.990405543169375  1.0000
  O   O2        1.0  0.31099564563157445  0.9492859598662579  0.2629198695226538  1.0000
  O   O3        1.0  0.2854465486105573  0.4101306907516437  0.4552768045268894  1.0000
  O   O4        1.0  0.5745955374868282  0.5181733236790089  0.23301390903120106  1.0000
  O   O5        1.0  0.8080085172102622  0.012727503728701852  0.7416841718463462  1.0000
  O   O6        1.0  0.409864853821442  0.2082932020586843  0.10269175502112418  1.0000
  O   O7        1.0  0.826683557347801  0.757002148605613  0.025056014721003272  1.0000
  O   O8        1.0  0.9867389163362968  0.13030329950696018  0.10274675622125475  1.0000
  O   O9        1.0  0.685972178352968  0.323893071948279  0.9186428543651507  1.0000
  O   O10       1.0  0.6716276416551956  0.6063593293455491  0.7444081985577206  1.0000
  O   O11       1.0  0.6516214478830328  0.17492078649493684  0.3944286328782697  1.0000
  O   O12       1.0  0.19646211157100457  0.6986221694726087  0.15496312122309933  1.0000
  O   O13       1.0  0.9047661683833466  0.8385460791290167  0.3370976450754933  1.0000
  O   O14       1.0  0.029122195661795896  0.566399359838467  0.7236499669884556  1.0000
  O   O15       1.0  0.4102079353650523  0.03174661226351485  0.7026336948591013  1.0000
  O   O16       1.0  0.12102833666036217  0.8910000323640739  0.8437771348704379  1.0000
data_image95
_chemical_formula_structural       Sn4W4O16
_chemical_formula_sum              "Sn4 W4 O16"
_cell_length_a       7.620549
_cell_length_b       7.620549
_cell_length_c       7.620549
_cell_angle_alpha    90.0
_cell_angle_beta     90.0
_cell_angle_gamma    90.0

_space_group_name_H-M_alt    "P 1"
_space_group_IT_number       1

loop_
  _space_group_symop_operation_xyz
  'x, y, z'

loop_
  _atom_site_type_symbol
  _atom_site_label
  _atom_site_symmetry_multiplicity
  _atom_site_fract_x
  _atom_site_fract_y
  _atom_site_fract_z
  _atom_site_occupancy
  Sn  Sn1       1.0  0.3219558329158937  0.5849665918693004  0.8523229517201661  1.0000
  Sn  Sn2       1.0  0.8627343826384061  0.43697761874808067  0.137491463983295  1.0000
  Sn  Sn3       1.0  0.5245524913602647  0.8555174962004477  0.2868059168187037  1.0000
  Sn  Sn4       1.0  0.16568972590257475  0.13261016113486188  0.58988564541696  1.0000
  W   W1        1.0  0.4586800151005833  0.3766662313162896  0.3563338568681328  1.0000
  W   W2        1.0  0.899107052036858  0.6993407844811677  0.7473527471656828  1.0000
  W   W3        1.0  0.6143617573942585  0.07292923838447082  0.8480546478463126  1.0000
  W   W4        1.0  0.09057028335363548  0.9063231901843221  0.1704372125195665  1.0000
  O   O1        1.0  0.5136243125143494  0.9185923562062934  0.001710240551992192  1.0000
  O   O2        1.0  0.16260035438971995  0.02829129406898117  0.3530395292142432  1.0000
  O   O3        1.0  0.3487672686512745  0.4843720124309954  0.5445851915085322  1.0000
  O   O4        1.0  0.5980408928489327  0.566014371070988  0.27630755794587875  1.0000
  O   O5        1.0  0.8077313285397012  0.981639720832087  0.7325310265271893  1.0000
  O   O6        1.0  0.3092223548529962  0.3397049603322378  0.20062943118267615  1.0000
  O   O7        1.0  0.7758911077963128  0.6626987526290573  0.9491244591507237  1.0000
  O   O8        1.0  0.9656891592449252  0.05839181393459403  0.07633445217913576  1.0000
  O   O9        1.0  0.6474647783064194  0.31111824665949245  0.9215388078738955  1.0000
  O   O10       1.0  0.738466285661405  0.6683085382290751  0.5934973630692756  1.0000
  O   O11       1.0  0.5806642716237509  0.1800726691684142  0.31524357110686446  1.0000
  O   O12       1.0  0.29225820488496024  0.753888219910707  0.17033735650743498  1.0000
  O   O13       1.0  0.8923769971240924  0.7835517417757792  0.252249029101713  1.0000
  O   O14       1.0  0.03346042358957889  0.5210338700153321  0.7065333478849668  1.0000
  O   O15       1.0  0.4210381375326104  0.05522914350596192  0.7253032468347592  1.0000
  O   O16       1.0  0.07784218831357892  0.8181080737447581  0.9049819692027117  1.0000
data_image96
_chemical_formula_structural       Sn4W4O16
_chemical_formula_sum              "Sn4 W4 O16"
_cell_length_a       7.620549
_cell_length_b       7.620549
_cell_length_c       7.620549
_cell_angle_alpha    90.0
_cell_angle_beta     90.0
_cell_angle_gamma    90.0

_space_group_name_H-M_alt    "P 1"
_space_group_IT_number       1

loop_
  _space_group_symop_operation_xyz
  'x, y, z'

loop_
  _atom_site_type_symbol
  _atom_site_label
  _atom_site_symmetry_multiplicity
  _atom_site_fract_x
  _atom_site_fract_y
  _atom_site_fract_z
  _atom_site_occupancy
  Sn  Sn1       1.0  0.3470440706655834  0.5184037743545807  0.8613447693295635  1.0000
  Sn  Sn2       1.0  0.8452092874947904  0.4730609717527474  0.15615698826637966  1.0000
  Sn  Sn3       1.0  0.5803208681268288  0.8490115625041605  0.31442235333661916  1.0000
  Sn  Sn4       1.0  0.1902101703940749  0.13786703972506087  0.5870869252929347  1.0000
  W   W1        1.0  0.40371297439344794  0.44716354751090603  0.3589178304276658  1.0000
  W   W2        1.0  0.9234527943905604  0.6600237857997037  0.7421706746996476  1.0000
  W   W3        1.0  0.6199958647601239  0.06739702398729568  0.8510383165564974  1.0000
  W   W4        1.0  0.06354542282602216  0.8938501837364319  0.1304356017749036  1.0000
  O   O1        1.0  0.5722957460141247  0.9407740984367126  0.04140065989989057  1.0000
  O   O2        1.0  0.12474729327022838  0.006555374632411143  0.3391967270968037  1.0000
  O   O3        1.0  0.44138375793171614  0.5270582217032491  0.5853940980240876  1.0000
  O   O4        1.0  0.6020188322888356  0.5509661474869827  0.22739279674576363  1.0000
  O   O5        1.0  0.8216246858330389  0.9980059373550471  0.7521494097153193  1.0000
  O   O6        1.0  0.17102949655736244  0.42881713420797324  0.27186636464523833  1.0000
  O   O7        1.0  0.7834492344969912  0.5927814290245559  0.9061058455936566  1.0000
  O   O8        1.0  0.9471445358043576  0.06910405328438585  0.05392864605935674  1.0000
  O   O9        1.0  0.6292922985308538  0.2827897129655069  0.9401228096632543  1.0000
  O   O10       1.0  0.7931761492302529  0.7018036201767524  0.547483685002454  1.0000
  O   O11       1.0  0.42397981527650713  0.22516397359977236  0.4407205947960703  1.0000
  O   O12       1.0  0.30648968823812917  0.7784122690264885  0.18314748216833296  1.0000
  O   O13       1.0  0.9045569905304259  0.7279687633141865  0.19394671924326673  1.0000
  O   O14       1.0  0.08096770492816122  0.5162272476936456  0.6757317073741617  1.0000
  O   O15       1.0  0.4223859741769722  0.033991723129510515  0.7227760741230629  1.0000
  O   O16       1.0  0.09162972874462039  0.8230713274187069  0.8933128030251283  1.0000
data_image97
_chemical_formula_structural       Sn4W4O16
_chemical_formula_sum              "Sn4 W4 O16"
_cell_length_a       7.620549
_cell_length_b       7.620549
_cell_length_c       7.620549
_cell_angle_alpha    90.0
_cell_angle_beta     90.0
_cell_angle_gamma    90.0

_space_group_name_H-M_alt    "P 1"
_space_group_IT_number       1

loop_
  _space_group_symop_operation_xyz
  'x, y, z'

loop_
  _atom_site_type_symbol
  _atom_site_label
  _atom_site_symmetry_multiplicity
  _atom_site_fract_x
  _atom_site_fract_y
  _atom_site_fract_z
  _atom_site_occupancy
  Sn  Sn1       1.0  0.40645014208176405  0.5347578491793339  0.9001896556215322  1.0000
  Sn  Sn2       1.0  0.8531552528250416  0.3909862421773097  0.1147759531790253  1.0000
  Sn  Sn3       1.0  0.5646696005486258  0.8607607510606156  0.3393881337706704  1.0000
  Sn  Sn4       1.0  0.1752092157541776  0.1127556103773675  0.617240929016078  1.0000
  W   W1        1.0  0.3547321157692276  0.481543099484888  0.37854368303826036  1.0000
  W   W2        1.0  0.9344905452703895  0.6515615717670251  0.7210259388647035  1.0000
  W   W3        1.0  0.6110472851651572  0.06442920439494763  0.8180535178969262  1.0000
  W   W4        1.0  0.09343254544871926  0.9189928028156622  0.14344934991438668  1.0000
  O   O1        1.0  0.6063010481822341  0.002448860951815061  0.06310857621322205  1.0000
  O   O2        1.0  0.10405429021556259  0.00737981622300305  0.3756461013550494  1.0000
  O   O3        1.0  0.3847900026655144  0.6009877614930655  0.5872827994593677  1.0000
  O   O4        1.0  0.5333668256111083  0.5954356346786023  0.24026482849254344  1.0000
  O   O5        1.0  0.7721182571005099  0.9277909375276834  0.6816994956452691  1.0000
  O   O6        1.0  0.17848160215657205  0.4882828628180149  0.25651407461229514  1.0000
  O   O7        1.0  0.7665042649366463  0.5525063226804429  0.8525553088484691  1.0000
  O   O8        1.0  0.056526479323253526  0.15693867831319874  0.055156742620502304  1.0000
  O   O9        1.0  0.5542607215465281  0.2800386483006262  0.8736944448052602  1.0000
  O   O10       1.0  0.9010036123365499  0.5695939211480392  0.4932728038128604  1.0000
  O   O11       1.0  0.3867427000335335  0.23340979538827067  0.39390197782064906  1.0000
  O   O12       1.0  0.31233360084427875  0.8205421647059286  0.21981380358290378  1.0000
  O   O13       1.0  0.8905647690370108  0.7626537227352952  0.13009584054114587  1.0000
  O   O14       1.0  0.06931360572288965  0.4500006504634289  0.7901552441768254  1.0000
  O   O15       1.0  0.4058298571850952  0.0016081896673866753  0.723669868824019  1.0000
  O   O16       1.0  0.11763534574139078  0.7752226923087329  0.8966304256318653  1.0000
data_image98
_chemical_formula_structural       Sn4W4O16
_chemical_formula_sum              "Sn4 W4 O16"
_cell_length_a       7.620549
_cell_length_b       7.620549
_cell_length_c       7.620549
_cell_angle_alpha    90.0
_cell_angle_beta     90.0
_cell_angle_gamma    90.0

_space_group_name_H-M_alt    "P 1"
_space_group_IT_number       1

loop_
  _space_group_symop_operation_xyz
  'x, y, z'

loop_
  _atom_site_type_symbol
  _atom_site_label
  _atom_site_symmetry_multiplicity
  _atom_site_fract_x
  _atom_site_fract_y
  _atom_site_fract_z
  _atom_site_occupancy
  Sn  Sn1       1.0  0.3820366324863263  0.6148119045441132  0.842015834294849  1.0000
  Sn  Sn2       1.0  0.9368330919608214  0.38325527258842756  0.11357865454289585  1.0000
  Sn  Sn3       1.0  0.637635253221964  0.8439080118489415  0.2762069522514056  1.0000
  Sn  Sn4       1.0  0.1389109596828962  0.07093554586340639  0.643455729451819  1.0000
  W   W1        1.0  0.32177927988908056  0.5133605556604731  0.37086443465123275  1.0000
  W   W2        1.0  0.9574301210727201  0.6147093192376432  0.7380686925890387  1.0000
  W   W3        1.0  0.5733560844487997  0.10520284316174924  0.8323048713889772  1.0000
  W   W4        1.0  0.08674770577290336  0.86231331582114  0.18531267242505367  1.0000
  O   O1        1.0  0.6406226204085111  0.10694857274545747  0.0661996873940698  1.0000
  O   O2        1.0  0.12468591062732166  0.95308329335513  0.41141952330090836  1.0000
  O   O3        1.0  0.2960677571320983  0.6557344005515472  0.5478752378579987  1.0000
  O   O4        1.0  0.559854871219654  0.5110352779604186  0.3047060677408518  1.0000
  O   O5        1.0  0.7690691104228452  0.05243635082161159  0.6978380944832919  1.0000
  O   O6        1.0  0.17248956052549014  0.5466504631838943  0.19071434889392064  1.0000
  O   O7        1.0  0.7348929144915898  0.6281133665376606  0.7838895139943446  1.0000
  O   O8        1.0  0.07498772481928156  0.06476581774881418  0.06865389403287785  1.0000
  O   O9        1.0  0.49915216737174817  0.3133347850952057  0.763624962976495  1.0000
  O   O10       1.0  0.9594414764222962  0.4863350513545561  0.5298070809822066  1.0000
  O   O11       1.0  0.3060542383198524  0.29378976784902516  0.45634160042691585  1.0000
  O   O12       1.0  0.36017150977936474  0.8124559169106719  0.19304917970733992  1.0000
  O   O13       1.0  0.8917034096541747  0.7249500593233255  0.16884617506590008  1.0000
  O   O14       1.0  0.07480539798580975  0.4683922196457745  0.8914879001050315  1.0000
  O   O15       1.0  0.4381903839551424  0.9128720859079412  0.7921379030695268  1.0000
  O   O16       1.0  0.03465148127799633  0.8451109433901759  0.7093609000384148  1.0000
data_image99
_chemical_formula_structural       Sn4W4O16
_chemical_formula_sum              "Sn4 W4 O16"
_cell_length_a       7.620549
_cell_length_b       7.620549
_cell_length_c       7.620549
_cell_angle_alpha    90.0
_cell_angle_beta     90.0
_cell_angle_gamma    90.0

_space_group_name_H-M_alt    "P 1"
_space_group_IT_number       1

loop_
  _space_group_symop_operation_xyz
  'x, y, z'

loop_
  _atom_site_type_symbol
  _atom_site_label
  _atom_site_symmetry_multiplicity
  _atom_site_fract_x
  _atom_site_fract_y
  _atom_site_fract_z
  _atom_site_occupancy
  Sn  Sn1       1.0  0.39602258641081006  0.6223314610105404  0.8131118950619797  1.0000
  Sn  Sn2       1.0  0.9886215906173651  0.39085215632663844  0.1251935096419781  1.0000
  Sn  Sn3       1.0  0.6489968259848395  0.8388002158692754  0.19960675513485152  1.0000
  Sn  Sn4       1.0  0.08452796504522864  0.11594202076498768  0.6613829166094982  1.0000
  W   W1        1.0  0.35910082468462945  0.4861909939390536  0.3608665070839965  1.0000
  W   W2        1.0  0.9448762997704833  0.6134055787084168  0.7553514827688462  1.0000
  W   W3        1.0  0.5415456100167237  0.142933792124835  0.8198107880698379  1.0000
  W   W4        1.0  0.11788407121246713  0.8240580918615141  0.24541543482783057  1.0000
  O   O1        1.0  0.5303520484945933  0.9654585250336962  0.9835472079439056  1.0000
  O   O2        1.0  0.013039453771761801  0.9612257573488272  0.4404442748279074  1.0000
  O   O3        1.0  0.27356655709362804  0.626664567537155  0.5436963605546452  1.0000
  O   O4        1.0  0.5675669167625201  0.5203421029096069  0.2661890928125245  1.0000
  O   O5        1.0  0.7282583261857812  0.15905890132816158  0.6515396828306249  1.0000
  O   O6        1.0  0.1910175714313307  0.5520697183126851  0.15851205564477813  1.0000
  O   O7        1.0  0.697698169962061  0.5696362629470563  0.7780338613641996  1.0000
  O   O8        1.0  0.07706581219779249  0.9901489058678622  0.09101414472981127  1.0000
  O   O9        1.0  0.42179375506925937  0.35206305350831296  0.8811671222075776  1.0000
  O   O10       1.0  0.9101209549239535  0.5779281896292436  0.5297891328175104  1.0000
  O   O11       1.0  0.35323808359864517  0.269738922313187  0.4582139912862374  1.0000
  O   O12       1.0  0.36117791497708907  0.8198217253780011  0.24831864917761057  1.0000
  O   O13       1.0  0.8836124849255279  0.659638246143185  0.18571030968837537  1.0000
  O   O14       1.0  0.06836813148609912  0.3973831458070384  0.8583695232619634  1.0000
  O   O15       1.0  0.3941059783760589  0.04897668202082622  0.6747812636822903  1.0000
  O   O16       1.0  0.035331861602370784  0.8345257657349707  0.7621576854044347  1.0000
data_image100
_chemical_formula_structural       Sn4W4O16
_chemical_formula_sum              "Sn4 W4 O16"
_cell_length_a       7.620549
_cell_length_b       7.620549
_cell_length_c       7.620549
_cell_angle_alpha    90.0
_cell_angle_beta     90.0
_cell_angle_gamma    90.0

_space_group_name_H-M_alt    "P 1"
_space_group_IT_number       1

loop_
  _space_group_symop_operation_xyz
  'x, y, z'

loop_
  _atom_site_type_symbol
  _atom_site_label
  _atom_site_symmetry_multiplicity
  _atom_site_fract_x
  _atom_site_fract_y
  _atom_site_fract_z
  _atom_site_occupancy
  Sn  Sn1       1.0  0.399577215462743  0.6546193129588811  0.8329916289517808  1.0000
  Sn  Sn2       1.0  0.954040990543243  0.3757290119879849  0.0985288066447521  1.0000
  Sn  Sn3       1.0  0.6479928217683596  0.8112895693992436  0.1936425652055291  1.0000
  Sn  Sn4       1.0  0.05794959123351842  0.07528066720643743  0.7055750707208643  1.0000
  W   W1        1.0  0.4006328232646955  0.4967659640903285  0.3273351155494358  1.0000
  W   W2        1.0  0.9169083519836028  0.63162033416061  0.7467681687168453  1.0000
  W   W3        1.0  0.5209998309068097  0.11130624342517857  0.7952150894098391  1.0000
  W   W4        1.0  0.13279887930652556  0.8513558377639334  0.28488508760685516  1.0000
  O   O1        1.0  0.6047021594505456  0.974305160690406  0.9794411357111406  1.0000
  O   O2        1.0  0.03776340618705462  0.9952759630431774  0.44479856464043  1.0000
  O   O3        1.0  0.40996674484895845  0.4935353687546258  0.5751711267705498  1.0000
  O   O4        1.0  0.583139128772557  0.5699233647867508  0.16032207968934972  1.0000
  O   O5        1.0  0.6670402637678577  0.21885392470267936  0.6504831882324967  1.0000
  O   O6        1.0  0.1818819103328495  0.5918272500518151  0.2193446225587805  1.0000
  O   O7        1.0  0.6857757305342225  0.6828807814143973  0.782668455375718  1.0000
  O   O8        1.0  0.21736374487334806  0.9755908415690001  0.11925959484031108  1.0000
  O   O9        1.0  0.3956380624933014  0.31215796919802474  0.887049795394739  1.0000
  O   O10       1.0  0.0018354693014727397  0.6425228289254575  0.5286856647859309  1.0000
  O   O11       1.0  0.3896786682634657  0.2651282830724284  0.24152686522744624  1.0000
  O   O12       1.0  0.36735962529656674  0.7752905291068494  0.3801667946008556  1.0000
  O   O13       1.0  0.8841997068065494  0.752844257817162  0.22169700661805833  1.0000
  O   O14       1.0  0.9958518163467062  0.41371821824212757  0.8170176024080393  1.0000
  O   O15       1.0  0.3654014120598465  0.9680152808870208  0.709755851280965  1.0000
  O   O16       1.0  0.058285692521425014  0.7951219342083897  0.8639489190426017  1.0000
data_image101
_chemical_formula_structural       Sn4W4O16
_chemical_formula_sum              "Sn4 W4 O16"
_cell_length_a       7.620549
_cell_length_b       7.620549
_cell_length_c       7.620549
_cell_angle_alpha    90.0
_cell_angle_beta     90.0
_cell_angle_gamma    90.0

_space_group_name_H-M_alt    "P 1"
_space_group_IT_number       1

loop_
  _space_group_symop_operation_xyz
  'x, y, z'

loop_
  _atom_site_type_symbol
  _atom_site_label
  _atom_site_symmetry_multiplicity
  _atom_site_fract_x
  _atom_site_fract_y
  _atom_site_fract_z
  _atom_site_occupancy
  Sn  Sn1       1.0  0.4105791812360115  0.6615817493797906  0.8267255974912658  1.0000
  Sn  Sn2       1.0  0.002393416258447356  0.38815388103845583  0.11064354450801159  1.0000
  Sn  Sn3       1.0  0.6601915899103731  0.8217996997203412  0.20321050899820342  1.0000
  Sn  Sn4       1.0  0.03788505486841211  0.05556759179529555  0.7592468689437166  1.0000
  W   W1        1.0  0.4269187278219539  0.4797591968707453  0.3326971243814408  1.0000
  W   W2        1.0  0.8654459106316015  0.6610061017419699  0.7060844331755015  1.0000
  W   W3        1.0  0.5124116616542368  0.11732246764402388  0.7995928864776577  1.0000
  W   W4        1.0  0.13413198285209482  0.836638225282541  0.27433023143218405  1.0000
  O   O1        1.0  0.6369200805837757  0.965591425573797  0.008322646729859894  1.0000
  O   O2        1.0  0.14101713566066415  0.9505132235703972  0.47093859192613796  1.0000
  O   O3        1.0  0.39195339903943366  0.5025770567600755  0.566378880616972  1.0000
  O   O4        1.0  0.6555439257121978  0.5424420538733228  0.25512627641201413  1.0000
  O   O5        1.0  0.6994775468430315  0.1568163176890829  0.6568982405522337  1.0000
  O   O6        1.0  0.18196294196536877  0.5252732157032398  0.2670963993546086  1.0000
  O   O7        1.0  0.6251752239501847  0.7267280393508481  0.716073170537739  1.0000
  O   O8        1.0  0.21362246226127848  0.9700596088775305  0.10142756268936012  1.0000
  O   O9        1.0  0.36463071857879004  0.3030188074131432  0.8214453628630711  1.0000
  O   O10       1.0  0.9020390532774277  0.7036579146604344  0.4838414868909831  1.0000
  O   O11       1.0  0.3966883626223196  0.25689541240435204  0.3104992275477131  1.0000
  O   O12       1.0  0.38887525931487543  0.748653779710253  0.2920689554034372  1.0000
  O   O13       1.0  0.9108056547966549  0.784884276975286  0.146597294705913  1.0000
  O   O14       1.0  0.9427579336055852  0.45454105101104686  0.8473393220642619  1.0000
  O   O15       1.0  0.3603705510369441  0.9244256911256067  0.7893714647096703  1.0000
  O   O16       1.0  0.04884920943826421  0.7874554653921175  0.808007889110436  1.0000
data_image102
_chemical_formula_structural       Sn4W4O16
_chemical_formula_sum              "Sn4 W4 O16"
_cell_length_a       7.620549
_cell_length_b       7.620549
_cell_length_c       7.620549
_cell_angle_alpha    90.0
_cell_angle_beta     90.0
_cell_angle_gamma    90.0

_space_group_name_H-M_alt    "P 1"
_space_group_IT_number       1

loop_
  _space_group_symop_operation_xyz
  'x, y, z'

loop_
  _atom_site_type_symbol
  _atom_site_label
  _atom_site_symmetry_multiplicity
  _atom_site_fract_x
  _atom_site_fract_y
  _atom_site_fract_z
  _atom_site_occupancy
  Sn  Sn1       1.0  0.38422553145322524  0.6919975940405132  0.7945980767704283  1.0000
  Sn  Sn2       1.0  0.9676236333391836  0.401077255170513  0.1410646659762417  1.0000
  Sn  Sn3       1.0  0.6678242181221737  0.8298324937803487  0.2312535849718233  1.0000
  Sn  Sn4       1.0  0.07370529696599602  0.06074818042045218  0.7811795673155066  1.0000
  W   W1        1.0  0.4409314469110195  0.49088390075819455  0.35428634785221985  1.0000
  W   W2        1.0  0.8484705884687034  0.6285588746128588  0.6796164687672798  1.0000
  W   W3        1.0  0.5352984860190058  0.12585483566906258  0.7768233074626429  1.0000
  W   W4        1.0  0.13759623919471142  0.8187274308008275  0.2787621856958019  1.0000
  O   O1        1.0  0.5795197834650334  0.9629904642400223  0.017300828909949936  1.0000
  O   O2        1.0  0.9933084327147617  0.8914334212750528  0.457522759782949  1.0000
  O   O3        1.0  0.3606971849814082  0.557952157605431  0.5790415351381574  1.0000
  O   O4        1.0  0.6096533435863765  0.544418432351379  0.18636461786790673  1.0000
  O   O5        1.0  0.7327487273793569  0.13853961464902123  0.6571123052417142  1.0000
  O   O6        1.0  0.2669814539269939  0.5110529874847115  0.21142316635850414  1.0000
  O   O7        1.0  0.640129120872814  0.785081443670412  0.7397245407900181  1.0000
  O   O8        1.0  0.15962738730459225  0.9719490359477806  0.08379313053861484  1.0000
  O   O9        1.0  0.4619695686413786  0.34108298140979554  0.8132282195779915  1.0000
  O   O10       1.0  0.8633009287405831  0.5500086738164747  0.4755302609939608  1.0000
  O   O11       1.0  0.4416054142663269  0.2640756023554075  0.37496222518975725  1.0000
  O   O12       1.0  0.38471699768034284  0.782287838259847  0.3463804612381832  1.0000
  O   O13       1.0  0.9604629723016685  0.6807512837489812  0.16613736251688155  1.0000
  O   O14       1.0  0.9063322273119905  0.4795471569969429  0.8869562061985716  1.0000
  O   O15       1.0  0.3405649427434154  0.9851051045451675  0.671925166826208  1.0000
  O   O16       1.0  0.9980530281406407  0.7766725769831161  0.792488746777446  1.0000
data_image103
_chemical_formula_structural       Sn4W4O16
_chemical_formula_sum              "Sn4 W4 O16"
_cell_length_a       7.620549
_cell_length_b       7.620549
_cell_length_c       7.620549
_cell_angle_alpha    90.0
_cell_angle_beta     90.0
_cell_angle_gamma    90.0

_space_group_name_H-M_alt    "P 1"
_space_group_IT_number       1

loop_
  _space_group_symop_operation_xyz
  'x, y, z'

loop_
  _atom_site_type_symbol
  _atom_site_label
  _atom_site_symmetry_multiplicity
  _atom_site_fract_x
  _atom_site_fract_y
  _atom_site_fract_z
  _atom_site_occupancy
  Sn  Sn1       1.0  0.3563105746050538  0.7133765023901891  0.7588182844388107  1.0000
  Sn  Sn2       1.0  0.910608686828101  0.4603560343808134  0.18309195917786839  1.0000
  Sn  Sn3       1.0  0.6699578979930697  0.8347240423090174  0.186984676004084  1.0000
  Sn  Sn4       1.0  0.10852810729636637  0.07712930031330806  0.8520791244038428  1.0000
  W   W1        1.0  0.4086013962398989  0.4446182396927148  0.33932905661041196  1.0000
  W   W2        1.0  0.8577463706986923  0.6244335164862126  0.692575287313909  1.0000
  W   W3        1.0  0.5783166604886795  0.14477539345038903  0.7873621590308686  1.0000
  W   W4        1.0  0.14070983362415834  0.799459006854798  0.26292981379285046  1.0000
  O   O1        1.0  0.6000544819233794  0.9725427993915681  0.9494108444199304  1.0000
  O   O2        1.0  0.009550551802627535  0.930353766990846  0.399144843155252  1.0000
  O   O3        1.0  0.32269348587915336  0.5722327023159308  0.5500832828658029  1.0000
  O   O4        1.0  0.6213510781350293  0.5094628675812198  0.2534926746561499  1.0000
  O   O5        1.0  0.7485605187226656  0.11202953610752522  0.6404170878537466  1.0000
  O   O6        1.0  0.2305064737129945  0.43115416265077705  0.15721420238598108  1.0000
  O   O7        1.0  0.6383202777798881  0.717727891735251  0.6158474919208167  1.0000
  O   O8        1.0  0.19097224369642796  0.9323104088686694  0.08777706910817142  1.0000
  O   O9        1.0  0.5081138911922867  0.35762414907035206  0.9053506834103251  1.0000
  O   O10       1.0  0.9421583319968182  0.5573064961888619  0.48436046250518  1.0000
  O   O11       1.0  0.43240201771205883  0.2286117998266369  0.41969295769063486  1.0000
  O   O12       1.0  0.38857737076511545  0.7371266008228529  0.28997511605301013  1.0000
  O   O13       1.0  0.9264493661178321  0.7080345578921247  0.16476687308757665  1.0000
  O   O14       1.0  0.8372359392301761  0.45693047821275584  0.9157386245441661  1.0000
  O   O15       1.0  0.3781191006590602  0.03656421940580739  0.6865824606363284  1.0000
  O   O16       1.0  0.026288247031007073  0.7790412495417649  0.7907485550492026  1.0000
data_image104
_chemical_formula_structural       Sn4W4O16
_chemical_formula_sum              "Sn4 W4 O16"
_cell_length_a       7.620549
_cell_length_b       7.620549
_cell_length_c       7.620549
_cell_angle_alpha    90.0
_cell_angle_beta     90.0
_cell_angle_gamma    90.0

_space_group_name_H-M_alt    "P 1"
_space_group_IT_number       1

loop_
  _space_group_symop_operation_xyz
  'x, y, z'

loop_
  _atom_site_type_symbol
  _atom_site_label
  _atom_site_symmetry_multiplicity
  _atom_site_fract_x
  _atom_site_fract_y
  _atom_site_fract_z
  _atom_site_occupancy
  Sn  Sn1       1.0  0.34555136814647885  0.6890269784600153  0.7144853735999561  1.0000
  Sn  Sn2       1.0  0.8856530874555132  0.3793581523762516  0.22967537056494067  1.0000
  Sn  Sn3       1.0  0.6324711245870916  0.8647322004885036  0.21819025637029094  1.0000
  Sn  Sn4       1.0  0.07360345895177713  0.1271960809071847  0.8703482560188815  1.0000
  W   W1        1.0  0.4099813488598586  0.45057094459816105  0.309366439033312  1.0000
  W   W2        1.0  0.8733058094257258  0.6373161812452016  0.6963575114187524  1.0000
  W   W3        1.0  0.5869904846511197  0.13645656326101502  0.8128873109609165  1.0000
  W   W4        1.0  0.15095612278460302  0.8147154087878352  0.23987449744664055  1.0000
  O   O1        1.0  0.7246685325765185  0.05530830194264595  0.9748069957989243  1.0000
  O   O2        1.0  0.18402932180559076  0.8417720901873483  0.49339116274179573  1.0000
  O   O3        1.0  0.4198831160447872  0.4975637700370896  0.5463479242081075  1.0000
  O   O4        1.0  0.6615347865921452  0.5473263679713116  0.23114418123910596  1.0000
  O   O5        1.0  0.6815603954860311  0.13906795769239186  0.5896011952128537  1.0000
  O   O6        1.0  0.1878405000281147  0.4085574054956217  0.2575281103045629  1.0000
  O   O7        1.0  0.6473600439635749  0.6981282375649962  0.658669297332058  1.0000
  O   O8        1.0  0.1775864410539033  0.9826577881671695  0.09029420821267836  1.0000
  O   O9        1.0  0.4494483189409755  0.3033351434353947  0.9061395094869931  1.0000
  O   O10       1.0  0.903139682976858  0.5040250926416215  0.49731770491821614  1.0000
  O   O11       1.0  0.5154334122360058  0.2482822434187026  0.2473658682963079  1.0000
  O   O12       1.0  0.36426791539939574  0.6951377084014084  0.15653633850080578  1.0000
  O   O13       1.0  0.943769191231122  0.7373308813761016  0.25178981519059546  1.0000
  O   O14       1.0  0.9630273440278581  0.4473184007896535  0.8090765809043401  1.0000
  O   O15       1.0  0.43106971735052335  0.961001092283258  0.7733622709114216  1.0000
  O   O16       1.0  0.9356434617561933  0.8633994207843599  0.70970339075228  1.0000
data_image105
_chemical_formula_structural       Sn4W4O16
_chemical_formula_sum              "Sn4 W4 O16"
_cell_length_a       7.620549
_cell_length_b       7.620549
_cell_length_c       7.620549
_cell_angle_alpha    90.0
_cell_angle_beta     90.0
_cell_angle_gamma    90.0

_space_group_name_H-M_alt    "P 1"
_space_group_IT_number       1

loop_
  _space_group_symop_operation_xyz
  'x, y, z'

loop_
  _atom_site_type_symbol
  _atom_site_label
  _atom_site_symmetry_multiplicity
  _atom_site_fract_x
  _atom_site_fract_y
  _atom_site_fract_z
  _atom_site_occupancy
  Sn  Sn1       1.0  0.3644126878681654  0.6907173429753496  0.6836334182880615  1.0000
  Sn  Sn2       1.0  0.8666196546254469  0.39855810871473174  0.313736001189046  1.0000
  Sn  Sn3       1.0  0.5626457461405743  0.895642788036198  0.29908136520426104  1.0000
  Sn  Sn4       1.0  0.10666414488691187  0.15879794314566734  0.8185949951244561  1.0000
  W   W1        1.0  0.44015354637827714  0.42672690100501365  0.24185990175581207  1.0000
  W   W2        1.0  0.8573060334358775  0.6441974471925841  0.7182111108432934  1.0000
  W   W3        1.0  0.5668505758522975  0.08969285996844889  0.7944408824818152  1.0000
  W   W4        1.0  0.15168454266881182  0.8337847490014204  0.2693223888503162  1.0000
  O   O1        1.0  0.7931663848121504  0.1075335568679947  0.873574418616474  1.0000
  O   O2        1.0  0.33159710487384925  0.8282436611762115  0.4636832610225847  1.0000
  O   O3        1.0  0.5314390680029778  0.5073812784731282  0.4533985274709208  1.0000
  O   O4        1.0  0.6750697585958717  0.48518112600925534  0.15175979227981531  1.0000
  O   O5        1.0  0.6847964236842374  0.019466229807288616  0.5824677768803325  1.0000
  O   O6        1.0  0.21096442986829156  0.37702048920245035  0.25219609657625547  1.0000
  O   O7        1.0  0.6586674661458697  0.7755033176233962  0.774120674989974  1.0000
  O   O8        1.0  0.18776676099270354  0.05291364349911909  0.19403433146364674  1.0000
  O   O9        1.0  0.4648583287992809  0.297723966788821  0.7909096005139067  1.0000
  O   O10       1.0  0.8640705397711869  0.5913885973411737  0.4928068843226373  1.0000
  O   O11       1.0  0.5523430501878553  0.20425675554173647  0.20838906880626337  1.0000
  O   O12       1.0  0.3506742304909418  0.71170828236014  0.1675060046859628  1.0000
  O   O13       1.0  0.96537897432215  0.7174894109507983  0.17510315225078665  1.0000
  O   O14       1.0  0.8358472799808763  0.4264178057091735  0.8151300639788952  1.0000
  O   O15       1.0  0.3544006016224468  0.9627051336923335  0.8340268852570631  1.0000
  O   O16       1.0  0.05882892880117008  0.7519621949958882  0.7438238714113145  1.0000
data_image106
_chemical_formula_structural       Sn4W4O16
_chemical_formula_sum              "Sn4 W4 O16"
_cell_length_a       7.620549
_cell_length_b       7.620549
_cell_length_c       7.620549
_cell_angle_alpha    90.0
_cell_angle_beta     90.0
_cell_angle_gamma    90.0

_space_group_name_H-M_alt    "P 1"
_space_group_IT_number       1

loop_
  _space_group_symop_operation_xyz
  'x, y, z'

loop_
  _atom_site_type_symbol
  _atom_site_label
  _atom_site_symmetry_multiplicity
  _atom_site_fract_x
  _atom_site_fract_y
  _atom_site_fract_z
  _atom_site_occupancy
  Sn  Sn1       1.0  0.3235994036788435  0.6957292805149963  0.731619010775181  1.0000
  Sn  Sn2       1.0  0.8687544972017756  0.4389257016489605  0.31385704764973155  1.0000
  Sn  Sn3       1.0  0.6124299831775044  0.9171238554810207  0.32398788295679526  1.0000
  Sn  Sn4       1.0  0.09956996462010609  0.12275537870196092  0.8523913038132881  1.0000
  W   W1        1.0  0.4445890522998463  0.3981043337146441  0.20115340322922393  1.0000
  W   W2        1.0  0.8460142671668363  0.6523147971688902  0.7441991937274275  1.0000
  W   W3        1.0  0.595586126290343  0.07234924949664721  0.7562891744742097  1.0000
  W   W4        1.0  0.17490220458945704  0.8398829284546028  0.2506846357249815  1.0000
  O   O1        1.0  0.6482407305741801  0.0212362736288099  0.9877026059858716  1.0000
  O   O2        1.0  0.15595851648466036  0.8988772524083131  0.4938526831005541  1.0000
  O   O3        1.0  0.4420235676576445  0.5644970795231724  0.38759833685902784  1.0000
  O   O4        1.0  0.6849187957109456  0.43893471558689323  0.13567005942356136  1.0000
  O   O5        1.0  0.775786676467616  0.09227441474567168  0.5926910180331568  1.0000
  O   O6        1.0  0.20485499928290518  0.41477731450870015  0.10561013637733682  1.0000
  O   O7        1.0  0.6186521166355031  0.6808021515789999  0.7744006185466725  1.0000
  O   O8        1.0  0.08203389861475072  0.026519396385220162  0.1399697285235651  1.0000
  O   O9        1.0  0.49993138407500703  0.30142153434334445  0.7566188873113797  1.0000
  O   O10       1.0  0.8204006487471128  0.5999271884498625  0.5110922729211105  1.0000
  O   O11       1.0  0.4716933400074634  0.18034646208099422  0.3052834793325074  1.0000
  O   O12       1.0  0.3479999904785709  0.7788785279526231  0.10666670715459436  1.0000
  O   O13       1.0  0.9818878895970711  0.667150109182641  0.24236409882024149  1.0000
  O   O14       1.0  0.902308424287786  0.4495426769162158  0.8189749243061053  1.0000
  O   O15       1.0  0.35753296126830736  0.9714069481154791  0.7773031467240354  1.0000
  O   O16       1.0  0.9806953168732625  0.8505191791816897  0.8473706651544997  1.0000
data_image107
_chemical_formula_structural       Sn4W4O16
_chemical_formula_sum              "Sn4 W4 O16"
_cell_length_a       7.620549
_cell_length_b       7.620549
_cell_length_c       7.620549
_cell_angle_alpha    90.0
_cell_angle_beta     90.0
_cell_angle_gamma    90.0

_space_group_name_H-M_alt    "P 1"
_space_group_IT_number       1

loop_
  _space_group_symop_operation_xyz
  'x, y, z'

loop_
  _atom_site_type_symbol
  _atom_site_label
  _atom_site_symmetry_multiplicity
  _atom_site_fract_x
  _atom_site_fract_y
  _atom_site_fract_z
  _atom_site_occupancy
  Sn  Sn1       1.0  0.3339916626811779  0.6431655594337062  0.7462857386785133  1.0000
  Sn  Sn2       1.0  0.9250635955751481  0.4551263916748826  0.2965480197765594  1.0000
  Sn  Sn3       1.0  0.6102225356553973  0.9443135829048167  0.23021913700035104  1.0000
  Sn  Sn4       1.0  0.12714325976114815  0.09004047751651777  0.8642984531443216  1.0000
  W   W1        1.0  0.39704648242707813  0.3953457160101061  0.18811926268291693  1.0000
  W   W2        1.0  0.8528666726233707  0.672183136915866  0.7493427334725966  1.0000
  W   W3        1.0  0.5927004043637922  0.07175807622615614  0.8099150435900574  1.0000
  W   W4        1.0  0.1605037016266604  0.8351137611507793  0.2610296884958525  1.0000
  O   O1        1.0  0.7085009031382496  0.09519981584521317  0.03235153513402749  1.0000
  O   O2        1.0  0.2622402712143164  0.880099047050998  0.47117233374461676  1.0000
  O   O3        1.0  0.2613559441116131  0.4971081530829389  0.3638565123961781  1.0000
  O   O4        1.0  0.5801019313342695  0.533433940051947  0.20568972155686283  1.0000
  O   O5        1.0  0.6511641859741188  0.9969863456459014  0.5960773187922116  1.0000
  O   O6        1.0  0.2803219623676134  0.36139119383450125  0.9970579414736556  1.0000
  O   O7        1.0  0.6258700312606618  0.6657286114377543  0.734249659382008  1.0000
  O   O8        1.0  0.055990722315825234  0.02629881301919723  0.21813369469921387  1.0000
  O   O9        1.0  0.542202402782086  0.2818564965460207  0.7594378418243816  1.0000
  O   O10       1.0  0.9413829114454525  0.7305847521495261  0.5244291787284142  1.0000
  O   O11       1.0  0.5253234849645149  0.20929251422564893  0.27333456046500976  1.0000
  O   O12       1.0  0.3161730832215677  0.8490087357744237  0.10020352185293618  1.0000
  O   O13       1.0  0.9462897247675908  0.6731237586484031  0.175216132162971  1.0000
  O   O14       1.0  0.9485525992309074  0.470250803121822  0.8227177754512137  1.0000
  O   O15       1.0  0.371488752733911  0.9842891936133138  0.8226049786198827  1.0000
  O   O16       1.0  0.9150071583415355  0.8643089999031358  0.8651592823461431  1.0000
data_image108
_chemical_formula_structural       Sn4W4O16
_chemical_formula_sum              "Sn4 W4 O16"
_cell_length_a       7.620549
_cell_length_b       7.620549
_cell_length_c       7.620549
_cell_angle_alpha    90.0
_cell_angle_beta     90.0
_cell_angle_gamma    90.0

_space_group_name_H-M_alt    "P 1"
_space_group_IT_number       1

loop_
  _space_group_symop_operation_xyz
  'x, y, z'

loop_
  _atom_site_type_symbol
  _atom_site_label
  _atom_site_symmetry_multiplicity
  _atom_site_fract_x
  _atom_site_fract_y
  _atom_site_fract_z
  _atom_site_occupancy
  Sn  Sn1       1.0  0.32086047140091284  0.6188423851814824  0.7307954553539057  1.0000
  Sn  Sn2       1.0  0.9722467231957038  0.44535534506689217  0.3056949092584568  1.0000
  Sn  Sn3       1.0  0.5990500326461212  0.977266324070389  0.19502790291800595  1.0000
  Sn  Sn4       1.0  0.04323332516465267  0.15531650862321456  0.8777325910163474  1.0000
  W   W1        1.0  0.3869056126996982  0.39276196654649337  0.18945509314126793  1.0000
  W   W2        1.0  0.8653646560556334  0.6661390319431406  0.760120059558246  1.0000
  W   W3        1.0  0.5997443018109224  0.10212189239463566  0.7761696325551183  1.0000
  W   W4        1.0  0.15791015307709655  0.8014551215338058  0.3027429602839294  1.0000
  O   O1        1.0  0.7627566973306732  0.1595742384423082  0.9656182519577683  1.0000
  O   O2        1.0  0.17242141880128364  0.7897061071474465  0.5639653050357236  1.0000
  O   O3        1.0  0.26302579926917025  0.5109093843033787  0.3610122782691262  1.0000
  O   O4        1.0  0.6238428712334426  0.4404572241148994  0.2015083461731671  1.0000
  O   O5        1.0  0.7412367644718897  0.01752029157899932  0.5987344889718398  1.0000
  O   O6        1.0  0.3436689819224421  0.40335844155837414  0.9731280484671989  1.0000
  O   O7        1.0  0.6398535146373501  0.6470760650414056  0.8351058463759027  1.0000
  O   O8        1.0  0.04945882508166092  0.991712788590632  0.198780467871264  1.0000
  O   O9        1.0  0.494909593862161  0.3058347605755232  0.676764844362066  1.0000
  O   O10       1.0  0.8517929848073873  0.577449762498847  0.5197836738101971  1.0000
  O   O11       1.0  0.4467745274372613  0.16709902916183791  0.2695015301050378  1.0000
  O   O12       1.0  0.3639990984596726  0.8418874936498121  0.20396777923597476  1.0000
  O   O13       1.0  0.04963546268573693  0.6669270693570293  0.11138444077352082  1.0000
  O   O14       1.0  0.042533937874746  0.48446752942764293  0.8360221973949215  1.0000
  O   O15       1.0  0.4346825751577001  0.9316920830256845  0.8482033715045452  1.0000
  O   O16       1.0  0.026625636089194105  0.8318174894198549  0.7988200511892312  1.0000
data_image109
_chemical_formula_structural       Sn4W4O16
_chemical_formula_sum              "Sn4 W4 O16"
_cell_length_a       7.620549
_cell_length_b       7.620549
_cell_length_c       7.620549
_cell_angle_alpha    90.0
_cell_angle_beta     90.0
_cell_angle_gamma    90.0

_space_group_name_H-M_alt    "P 1"
_space_group_IT_number       1

loop_
  _space_group_symop_operation_xyz
  'x, y, z'

loop_
  _atom_site_type_symbol
  _atom_site_label
  _atom_site_symmetry_multiplicity
  _atom_site_fract_x
  _atom_site_fract_y
  _atom_site_fract_z
  _atom_site_occupancy
  Sn  Sn1       1.0  0.3455024032586662  0.6098835297625004  0.7399509570083818  1.0000
  Sn  Sn2       1.0  0.904443907637066  0.3732437287378332  0.31036179274666187  1.0000
  Sn  Sn3       1.0  0.6074241042832359  0.9465923718721224  0.2684567237542072  1.0000
  Sn  Sn4       1.0  0.07669365449677912  0.20970459106757394  0.8570989349730088  1.0000
  W   W1        1.0  0.3785391568200404  0.40224149803940246  0.23321188564581857  1.0000
  W   W2        1.0  0.8741035578552809  0.637433422835001  0.7513466223494554  1.0000
  W   W3        1.0  0.6200957778830647  0.14833375426387035  0.7282649056081977  1.0000
  W   W4        1.0  0.13404143641338973  0.7928762043321188  0.29013393507175134  1.0000
  O   O1        1.0  0.8112622154448832  0.2194486334937052  0.8652234639215767  1.0000
  O   O2        1.0  0.17126346963493258  0.9405193861849935  0.45052929829644395  1.0000
  O   O3        1.0  0.26400231312600936  0.5236991039439858  0.4177812609368001  1.0000
  O   O4        1.0  0.5793419486941741  0.5081444779344435  0.23430283352269252  1.0000
  O   O5        1.0  0.6838647944127229  0.09048307688007244  0.5087154225321951  1.0000
  O   O6        1.0  0.34813266122675035  0.4160453066294181  0.9932279324239971  1.0000
  O   O7        1.0  0.7149840352373639  0.5165719632704064  0.8937241791707875  1.0000
  O   O8        1.0  0.908227075476791  0.9010109992030475  0.23160963460068415  1.0000
  O   O9        1.0  0.5474661320425559  0.3646186361952294  0.6876630678100544  1.0000
  O   O10       1.0  0.8734469226197652  0.6705931219324657  0.511106930233233  1.0000
  O   O11       1.0  0.502362735326746  0.18933907091275778  0.24138131266864232  1.0000
  O   O12       1.0  0.34084417606255957  0.8026270172788432  0.18409201718476578  1.0000
  O   O13       1.0  0.06454031927091575  0.5456999607898619  0.19149884424128666  1.0000
  O   O14       1.0  0.08018114077762994  0.4851725261957727  0.7149166683752453  1.0000
  O   O15       1.0  0.4834484568432295  0.9728926689333542  0.7997670697159388  1.0000
  O   O16       1.0  0.9567924646336968  0.8371824257468946  0.8323472738795298  1.0000
data_image110
_chemical_formula_structural       Sn4W4O16
_chemical_formula_sum              "Sn4 W4 O16"
_cell_length_a       7.620549
_cell_length_b       7.620549
_cell_length_c       7.620549
_cell_angle_alpha    90.0
_cell_angle_beta     90.0
_cell_angle_gamma    90.0

_space_group_name_H-M_alt    "P 1"
_space_group_IT_number       1

loop_
  _space_group_symop_operation_xyz
  'x, y, z'

loop_
  _atom_site_type_symbol
  _atom_site_label
  _atom_site_symmetry_multiplicity
  _atom_site_fract_x
  _atom_site_fract_y
  _atom_site_fract_z
  _atom_site_occupancy
  Sn  Sn1       1.0  0.3900398947493999  0.640640348022474  0.7701129542352907  1.0000
  Sn  Sn2       1.0  0.8437846817990008  0.3821850212402795  0.356758689149102  1.0000
  Sn  Sn3       1.0  0.6378347259297446  0.9095336817569751  0.27534326465808195  1.0000
  Sn  Sn4       1.0  0.18169312904670262  0.19940762924710845  0.8526461093920829  1.0000
  W   W1        1.0  0.396557261588285  0.4301138026001721  0.2137549678466982  1.0000
  W   W2        1.0  0.8890627468249604  0.6419749546746701  0.762605872868866  1.0000
  W   W3        1.0  0.6094035164203973  0.15583752471660905  0.6798590178538605  1.0000
  W   W4        1.0  0.07918996798585631  0.7542720453660626  0.2943913044796783  1.0000
  O   O1        1.0  0.8445728872942707  0.16909607502514118  0.7337655367126086  1.0000
  O   O2        1.0  0.13038843818238394  0.7791536884024518  0.5305590573881913  1.0000
  O   O3        1.0  0.24871091361201428  0.537756265960091  0.36541433494518716  1.0000
  O   O4        1.0  0.6367674625439059  0.48806349512946845  0.1956380083141774  1.0000
  O   O5        1.0  0.6827355440117622  0.18089390361583288  0.433505967809657  1.0000
  O   O6        1.0  0.2813867345284278  0.4698292754715292  0.9960577942917999  1.0000
  O   O7        1.0  0.6720803341562305  0.6276102730285398  0.8565445964649291  1.0000
  O   O8        1.0  0.8918259981981631  0.899479247369594  0.31897017519162035  1.0000
  O   O9        1.0  0.4814007332512934  0.33438011744520624  0.7484157041251661  1.0000
  O   O10       1.0  0.8277392762288782  0.6402871762072107  0.5188755359200065  1.0000
  O   O11       1.0  0.3811252180937811  0.19809736006361928  0.2979686835009311  1.0000
  O   O12       1.0  0.21570731590032288  0.8307226267926658  0.1441728579428206  1.0000
  O   O13       1.0  0.9424495704567962  0.5707369507307094  0.1979726009885559  1.0000
  O   O14       1.0  0.07042486529750588  0.48601631231921166  0.747872580489665  1.0000
  O   O15       1.0  0.5478085804771206  0.01068479030606704  0.8381715254455931  1.0000
  O   O16       1.0  0.98195784480981  0.8229015686698125  0.8408963672530689  1.0000
data_image111
_chemical_formula_structural       Sn4W4O16
_chemical_formula_sum              "Sn4 W4 O16"
_cell_length_a       7.620549
_cell_length_b       7.620549
_cell_length_c       7.620549
_cell_angle_alpha    90.0
_cell_angle_beta     90.0
_cell_angle_gamma    90.0

_space_group_name_H-M_alt    "P 1"
_space_group_IT_number       1

loop_
  _space_group_symop_operation_xyz
  'x, y, z'

loop_
  _atom_site_type_symbol
  _atom_site_label
  _atom_site_symmetry_multiplicity
  _atom_site_fract_x
  _atom_site_fract_y
  _atom_site_fract_z
  _atom_site_occupancy
  Sn  Sn1       1.0  0.313392640333626  0.6686779586490795  0.7793110566942304  1.0000
  Sn  Sn2       1.0  0.8456186207293328  0.43848243114055824  0.3603953455830617  1.0000
  Sn  Sn3       1.0  0.5851694529823108  0.8199391978507055  0.26030950564104605  1.0000
  Sn  Sn4       1.0  0.2643357495679726  0.17771398247181935  0.8880251551531447  1.0000
  W   W1        1.0  0.43144649519654565  0.4087957771057894  0.22147207762085597  1.0000
  W   W2        1.0  0.909190651149155  0.6656950490123956  0.7448636286671203  1.0000
  W   W3        1.0  0.6274520599014592  0.13162685467227409  0.6996982873599307  1.0000
  W   W4        1.0  0.06238825316645702  0.7834332096342079  0.3097801484346735  1.0000
  O   O1        1.0  0.7922800616114059  0.2829144878610322  0.7342864418926882  1.0000
  O   O2        1.0  0.12475677744000849  0.7292701755458009  0.5449605051002957  1.0000
  O   O3        1.0  0.2709712199946629  0.5097551301782636  0.35397611208240903  1.0000
  O   O4        1.0  0.629962833483745  0.5648288235947228  0.16786680569123372  1.0000
  O   O5        1.0  0.5842081899576241  0.26345450618731237  0.3463073423151746  1.0000
  O   O6        1.0  0.4063938326070504  0.42064474261203877  0.9284945287395879  1.0000
  O   O7        1.0  0.7288146924001324  0.5728079608841162  0.8774435508459131  1.0000
  O   O8        1.0  0.849013930022362  0.8863879095591819  0.2151596010939531  1.0000
  O   O9        1.0  0.40850870013348345  0.20514594689638277  0.6414226930088441  1.0000
  O   O10       1.0  0.7911173053947451  0.6617996249322717  0.4529572457432067  1.0000
  O   O11       1.0  0.27826791113483773  0.21767467601009083  0.23073811881497613  1.0000
  O   O12       1.0  0.19301350886471624  0.9012989869222764  0.12578129324877066  1.0000
  O   O13       1.0  0.009228532038685566  0.560035807883135  0.18245587751656392  1.0000
  O   O14       1.0  0.06316577562050107  0.4777698957586686  0.7916032253363389  1.0000
  O   O15       1.0  0.5000291673254589  0.9870178485605411  0.857416108944177  1.0000
  O   O16       1.0  0.8857347635393027  0.9135859184163679  0.7751536145435521  1.0000
data_image112
_chemical_formula_structural       Sn4W4O16
_chemical_formula_sum              "Sn4 W4 O16"
_cell_length_a       7.620549
_cell_length_b       7.620549
_cell_length_c       7.620549
_cell_angle_alpha    90.0
_cell_angle_beta     90.0
_cell_angle_gamma    90.0

_space_group_name_H-M_alt    "P 1"
_space_group_IT_number       1

loop_
  _space_group_symop_operation_xyz
  'x, y, z'

loop_
  _atom_site_type_symbol
  _atom_site_label
  _atom_site_symmetry_multiplicity
  _atom_site_fract_x
  _atom_site_fract_y
  _atom_site_fract_z
  _atom_site_occupancy
  Sn  Sn1       1.0  0.3467574444638894  0.6543727412712281  0.8187500460462909  1.0000
  Sn  Sn2       1.0  0.8704462687791433  0.40813708959671846  0.34281843391202865  1.0000
  Sn  Sn3       1.0  0.5511199223609475  0.8403614359343753  0.23447792140563453  1.0000
  Sn  Sn4       1.0  0.2542184664970588  0.17294457437309238  0.8732866224664195  1.0000
  W   W1        1.0  0.45472343593333236  0.40564041732690986  0.2108276593760151  1.0000
  W   W2        1.0  0.8304367111795108  0.6782929950847959  0.7638542190238017  1.0000
  W   W3        1.0  0.6350850100547412  0.09275186795293178  0.7032132613442332  1.0000
  W   W4        1.0  0.0698667221775493  0.7955160173531229  0.3003701104188586  1.0000
  O   O1        1.0  0.7318314183005922  0.2713019662005947  0.8008622309442106  1.0000
  O   O2        1.0  0.13919484717251318  0.9429044061392903  0.4407214275281681  1.0000
  O   O3        1.0  0.4248127363312371  0.576035773730501  0.4052184624932268  1.0000
  O   O4        1.0  0.7027224316623573  0.5514339191534641  0.1349937907236715  1.0000
  O   O5        1.0  0.6585007522189448  0.27346776556505337  0.28526935011467164  1.0000
  O   O6        1.0  0.40782889922579013  0.40833343891434937  0.9646952898742857  1.0000
  O   O7        1.0  0.629539485415899  0.576161708079711  0.7467629279853192  1.0000
  O   O8        1.0  0.8583605376673895  0.9296429637475201  0.2693790446157949  1.0000
  O   O9        1.0  0.40712432451971675  0.14951958266788218  0.6250872799088402  1.0000
  O   O10       1.0  0.9333805588807609  0.6800490375041021  0.5145027012956284  1.0000
  O   O11       1.0  0.2711584566005027  0.23360279826661814  0.23070758060644975  1.0000
  O   O12       1.0  0.2484452740710823  0.8529258053907737  0.1266590337685271  1.0000
  O   O13       1.0  0.0704939937447906  0.5587355613826647  0.27223169343834974  1.0000
  O   O14       1.0  0.046085529239828366  0.6449481974911263  0.8934630125092481  1.0000
  O   O15       1.0  0.512253496344946  0.013432344390795894  0.8884042311525807  1.0000
  O   O16       1.0  0.8286279660106104  0.9159329122950547  0.7423765361795728  1.0000
data_image113
_chemical_formula_structural       Sn4W4O16
_chemical_formula_sum              "Sn4 W4 O16"
_cell_length_a       7.620549
_cell_length_b       7.620549
_cell_length_c       7.620549
_cell_angle_alpha    90.0
_cell_angle_beta     90.0
_cell_angle_gamma    90.0

_space_group_name_H-M_alt    "P 1"
_space_group_IT_number       1

loop_
  _space_group_symop_operation_xyz
  'x, y, z'

loop_
  _atom_site_type_symbol
  _atom_site_label
  _atom_site_symmetry_multiplicity
  _atom_site_fract_x
  _atom_site_fract_y
  _atom_site_fract_z
  _atom_site_occupancy
  Sn  Sn1       1.0  0.33904092618536774  0.6260438224361575  0.8494804005017275  1.0000
  Sn  Sn2       1.0  0.8804657159046433  0.3938790268131592  0.2608338619248579  1.0000
  Sn  Sn3       1.0  0.5494805637291003  0.9108468967551989  0.23072747007887306  1.0000
  Sn  Sn4       1.0  0.22362480586182373  0.14929013356174622  0.925350435099758  1.0000
  W   W1        1.0  0.4524820454603729  0.42347030271694025  0.21347788654796088  1.0000
  W   W2        1.0  0.805795071109725  0.6516138830012165  0.7145650488277836  1.0000
  W   W3        1.0  0.6440149011473209  0.10197073468988774  0.7559931852335485  1.0000
  W   W4        1.0  0.10840310877686044  0.803712026883586  0.2846827776359546  1.0000
  O   O1        1.0  0.7874898431110504  0.27245891915770004  0.7432725342783117  1.0000
  O   O2        1.0  0.21615747850567527  0.8816307946789739  0.5009256653669787  1.0000
  O   O3        1.0  0.46799333562610673  0.5335642201886894  0.41627401708097994  1.0000
  O   O4        1.0  0.6337927675586109  0.619727247766898  0.17410823910411521  1.0000
  O   O5        1.0  0.6484184638785362  0.2486675264700698  0.242408904621462  1.0000
  O   O6        1.0  0.36549593374377  0.3916920963269145  0.9637446066998037  1.0000
  O   O7        1.0  0.5684999989997793  0.7247414777966525  0.7950122004081451  1.0000
  O   O8        1.0  0.8883913529976464  0.9345797025192211  0.2752956194991276  1.0000
  O   O9        1.0  0.47551701594788637  0.14375776016464809  0.6130363744496857  1.0000
  O   O10       1.0  0.9977388610964238  0.522020369512659  0.6192625684582208  1.0000
  O   O11       1.0  0.29131159395095957  0.23943879069950916  0.23577283209047034  1.0000
  O   O12       1.0  0.2697319393386095  0.8025083174997188  0.0932816326060458  1.0000
  O   O13       1.0  0.06554334786782356  0.5847794153583833  0.262654616102237  1.0000
  O   O14       1.0  0.8977772233045374  0.5573705873258841  0.8996511846855514  1.0000
  O   O15       1.0  0.5095788536560916  0.06515846583376211  0.9935452257598439  1.0000
  O   O16       1.0  0.7974536566331291  0.9011441017473566  0.6658713041303296  1.0000
data_image114
_chemical_formula_structural       Sn4W4O16
_chemical_formula_sum              "Sn4 W4 O16"
_cell_length_a       7.620549
_cell_length_b       7.620549
_cell_length_c       7.620549
_cell_angle_alpha    90.0
_cell_angle_beta     90.0
_cell_angle_gamma    90.0

_space_group_name_H-M_alt    "P 1"
_space_group_IT_number       1

loop_
  _space_group_symop_operation_xyz
  'x, y, z'

loop_
  _atom_site_type_symbol
  _atom_site_label
  _atom_site_symmetry_multiplicity
  _atom_site_fract_x
  _atom_site_fract_y
  _atom_site_fract_z
  _atom_site_occupancy
  Sn  Sn1       1.0  0.3372483948294331  0.6285687305625969  0.7920265700188338  1.0000
  Sn  Sn2       1.0  0.8877236248632409  0.4443420297261719  0.1571478370516962  1.0000
  Sn  Sn3       1.0  0.5799321705736646  0.938497383843556  0.24127330423295532  1.0000
  Sn  Sn4       1.0  0.1653631681324683  0.1671238364428013  0.9524138908235296  1.0000
  W   W1        1.0  0.4431402421124694  0.3816264673456734  0.23257710041543697  1.0000
  W   W2        1.0  0.801562214686455  0.6561582477581573  0.745976196398577  1.0000
  W   W3        1.0  0.651655149606196  0.09826683429290742  0.7761947577114942  1.0000
  W   W4        1.0  0.15514153786291507  0.7876234617271407  0.28104733443925467  1.0000
  O   O1        1.0  0.7593869778012464  0.29565263412336923  0.8574022957492604  1.0000
  O   O2        1.0  0.21037606631080832  0.9121400353135851  0.4497462815154092  1.0000
  O   O3        1.0  0.39796794623260506  0.40635633809805294  0.47034535471137323  1.0000
  O   O4        1.0  0.5744838902070895  0.5909828529342855  0.12639158145551085  1.0000
  O   O5        1.0  0.6402147026907368  0.2788777478880601  0.25864519157242144  1.0000
  O   O6        1.0  0.35759650970244583  0.40244004573002334  0.9669440076642754  1.0000
  O   O7        1.0  0.5695128775665468  0.7214001919579739  0.7819611179802126  1.0000
  O   O8        1.0  0.9110418728458396  0.8452052721552022  0.24851191943699028  1.0000
  O   O9        1.0  0.4939932088378985  0.16093900511534143  0.6280521848906706  1.0000
  O   O10       1.0  0.7152253946286604  0.563708387734661  0.5561464451002055  1.0000
  O   O11       1.0  0.21541628015870037  0.2616940428671657  0.2189768595195421  1.0000
  O   O12       1.0  0.29120569932920404  0.8070428224216457  0.09861681310909247  1.0000
  O   O13       1.0  0.10108794901536378  0.5495134570952308  0.3101022254480831  1.0000
  O   O14       1.0  0.9311383425752391  0.6289316943815452  0.94090796638254  1.0000
  O   O15       1.0  0.5576103888799113  0.0009187529038173787  0.99878194167465  1.0000
  O   O16       1.0  0.8427441038672527  0.9168195127347305  0.7249004058139383  1.0000
data_image115
_chemical_formula_structural       Sn4W4O16
_chemical_formula_sum              "Sn4 W4 O16"
_cell_length_a       7.620549
_cell_length_b       7.620549
_cell_length_c       7.620549
_cell_angle_alpha    90.0
_cell_angle_beta     90.0
_cell_angle_gamma    90.0

_space_group_name_H-M_alt    "P 1"
_space_group_IT_number       1

loop_
  _space_group_symop_operation_xyz
  'x, y, z'

loop_
  _atom_site_type_symbol
  _atom_site_label
  _atom_site_symmetry_multiplicity
  _atom_site_fract_x
  _atom_site_fract_y
  _atom_site_fract_z
  _atom_site_occupancy
  Sn  Sn1       1.0  0.3498149805692184  0.6037942030612935  0.7794560165632579  1.0000
  Sn  Sn2       1.0  0.8826426638493986  0.5071286995797851  0.12876011760286485  1.0000
  Sn  Sn3       1.0  0.5761182368509326  0.9084409134723272  0.30375673561266375  1.0000
  Sn  Sn4       1.0  0.1138894273292645  0.18162360969952607  0.9375561742947153  1.0000
  W   W1        1.0  0.43868397068202764  0.364267647039717  0.2459136222379149  1.0000
  W   W2        1.0  0.8016048963051101  0.6890163187338361  0.7207654592840457  1.0000
  W   W3        1.0  0.6757096952127736  0.03770328158666491  0.8187889864572603  1.0000
  W   W4        1.0  0.15504317825131042  0.8239491483010722  0.25490104046881734  1.0000
  O   O1        1.0  0.7948715585593901  0.2382944627476461  0.8097878939855502  1.0000
  O   O2        1.0  0.19498277397502434  0.8577536122330855  0.49200878467295106  1.0000
  O   O3        1.0  0.3611143057518127  0.5725727980565669  0.35086640297775584  1.0000
  O   O4        1.0  0.6213408500339647  0.4366960272691194  0.12915556134333436  1.0000
  O   O5        1.0  0.5463722156510903  0.24452484950480455  0.3977672560603607  1.0000
  O   O6        1.0  0.30167759344368106  0.416822718002861  0.951175751866181  1.0000
  O   O7        1.0  0.5813315291815172  0.7126664628501674  0.8466627324997668  1.0000
  O   O8        1.0  0.9399691739698524  0.9339596194015441  0.18568485346676278  1.0000
  O   O9        1.0  0.46863253497448043  0.016374416486531745  0.6740680847588842  1.0000
  O   O10       1.0  0.8067484613830546  0.560811271848156  0.5157945816397591  1.0000
  O   O11       1.0  0.2168189632745566  0.2455299796339763  0.22879870908217562  1.0000
  O   O12       1.0  0.3570037755714863  0.8076240708858471  0.11571058234352893  1.0000
  O   O13       1.0  0.0754712409506979  0.6052855867295974  0.275710557520285  1.0000
  O   O14       1.0  0.979849707612295  0.6672499538407659  0.8660236088200898  1.0000
  O   O15       1.0  0.6311508556703194  0.051638014585260676  0.04349735072326122  1.0000
  O   O16       1.0  0.8108571870586758  0.9127418321842089  0.644995283212721  1.0000
data_image116
_chemical_formula_structural       Sn4W4O16
_chemical_formula_sum              "Sn4 W4 O16"
_cell_length_a       7.620549
_cell_length_b       7.620549
_cell_length_c       7.620549
_cell_angle_alpha    90.0
_cell_angle_beta     90.0
_cell_angle_gamma    90.0

_space_group_name_H-M_alt    "P 1"
_space_group_IT_number       1

loop_
  _space_group_symop_operation_xyz
  'x, y, z'

loop_
  _atom_site_type_symbol
  _atom_site_label
  _atom_site_symmetry_multiplicity
  _atom_site_fract_x
  _atom_site_fract_y
  _atom_site_fract_z
  _atom_site_occupancy
  Sn  Sn1       1.0  0.3197291002343502  0.6111972766470546  0.7732896634015752  1.0000
  Sn  Sn2       1.0  0.8743212408174595  0.4818675078503511  0.11059468777871685  1.0000
  Sn  Sn3       1.0  0.6051121538066817  0.9257921200232635  0.3139178107035566  1.0000
  Sn  Sn4       1.0  0.14844776787937383  0.21130765632887216  0.9485910818352141  1.0000
  W   W1        1.0  0.3897423056822394  0.33749080176322177  0.24578094883872753  1.0000
  W   W2        1.0  0.8236692478328933  0.6449512706857673  0.6877980640785443  1.0000
  W   W3        1.0  0.6823114407428689  0.039713636181906  0.8519921972474993  1.0000
  W   W4        1.0  0.15396848339693636  0.8708708341020585  0.2556585818840985  1.0000
  O   O1        1.0  0.7829078437634472  0.24455499859604235  0.7800929843314831  1.0000
  O   O2        1.0  0.1622535715532689  0.9977637176363319  0.43555709620502836  1.0000
  O   O3        1.0  0.3495327501806429  0.48940570402631056  0.4152472523948893  1.0000
  O   O4        1.0  0.6369337259879118  0.3729292762752283  0.20064121221333345  1.0000
  O   O5        1.0  0.4615440996517036  0.18781739669919972  0.41694486429816713  1.0000
  O   O6        1.0  0.3546273074846302  0.4307988398258077  0.9700611180236042  1.0000
  O   O7        1.0  0.5732049688354414  0.7226138134325497  0.7409297923490279  1.0000
  O   O8        1.0  0.09843254279649426  0.9450755228835074  0.04889671287601341  1.0000
  O   O9        1.0  0.4996534552516783  0.15759960198020978  0.8064293880891111  1.0000
  O   O10       1.0  0.7292882427858327  0.5468232763523255  0.513465650445178  1.0000
  O   O11       1.0  0.13381163091892984  0.32184723287412925  0.216532982007637  1.0000
  O   O12       1.0  0.38037313667342953  0.8129022572796851  0.1648538773557319  1.0000
  O   O13       1.0  0.029366766218665186  0.6493542090286064  0.27024898339684233  1.0000
  O   O14       1.0  0.003936577626888066  0.5224557653721935  0.7984595436151495  1.0000
  O   O15       1.0  0.71058451820304  0.038908328168891414  0.07701089176707598  1.0000
  O   O16       1.0  0.8618585387039497  0.8833216884449099  0.7029378807846175  1.0000
data_image117
_chemical_formula_structural       Sn4W4O16
_chemical_formula_sum              "Sn4 W4 O16"
_cell_length_a       7.620549
_cell_length_b       7.620549
_cell_length_c       7.620549
_cell_angle_alpha    90.0
_cell_angle_beta     90.0
_cell_angle_gamma    90.0

_space_group_name_H-M_alt    "P 1"
_space_group_IT_number       1

loop_
  _space_group_symop_operation_xyz
  'x, y, z'

loop_
  _atom_site_type_symbol
  _atom_site_label
  _atom_site_symmetry_multiplicity
  _atom_site_fract_x
  _atom_site_fract_y
  _atom_site_fract_z
  _atom_site_occupancy
  Sn  Sn1       1.0  0.34352827660092977  0.6177128416143775  0.7536767864623543  1.0000
  Sn  Sn2       1.0  0.8888054672747635  0.465827293744372  0.17293727382450164  1.0000
  Sn  Sn3       1.0  0.6309448574181563  0.926982005739323  0.33139868216340906  1.0000
  Sn  Sn4       1.0  0.2036611890181709  0.23690710880275043  0.8544676133909814  1.0000
  W   W1        1.0  0.36113099663350284  0.36744499723965085  0.28885093308591575  1.0000
  W   W2        1.0  0.7737816332346732  0.6197967884356953  0.70636406773341  1.0000
  W   W3        1.0  0.6804796123642929  0.0520558437895464  0.8268746039629143  1.0000
  W   W4        1.0  0.17041983993023213  0.8622228298913157  0.2196830569488309  1.0000
  O   O1        1.0  0.7794136177471924  0.274912630404157  0.7578319240138434  1.0000
  O   O2        1.0  0.14597011512035976  0.9430299466922037  0.44136766815579853  1.0000
  O   O3        1.0  0.36002605069191196  0.4182601158637646  0.5213712725875067  1.0000
  O   O4        1.0  0.6199489151197113  0.396335240187347  0.29625984383745707  1.0000
  O   O5        1.0  0.3676113322330876  0.14338442628089396  0.3143227990896352  1.0000
  O   O6        1.0  0.3845681590121761  0.354572571466959  0.9794415842166347  1.0000
  O   O7        1.0  0.5865475225803614  0.6649575285381859  0.8498251090134008  1.0000
  O   O8        1.0  0.17397339283956714  0.026566112686035037  0.053509875898791776  1.0000
  O   O9        1.0  0.4550059762792237  0.07662843602359583  0.7603482278239697  1.0000
  O   O10       1.0  0.9688512205952319  0.5189961222745523  0.5655001231976167  1.0000
  O   O11       1.0  0.13209626536324554  0.37449078627633686  0.18667489474274496  1.0000
  O   O12       1.0  0.3403694095941223  0.7128166994383366  0.20606776644345  1.0000
  O   O13       1.0  0.9483234951366722  0.7295669040743629  0.18193504041336017  1.0000
  O   O14       1.0  0.8732249283504708  0.6066987409127443  0.9357712021834996  1.0000
  O   O15       1.0  0.6736679023802102  0.014596773680692789  0.05741612384813721  1.0000
  O   O16       1.0  0.7995320380142029  0.8702436492598176  0.7006908706128422  1.0000
data_image118
_chemical_formula_structural       Sn4W4O16
_chemical_formula_sum              "Sn4 W4 O16"
_cell_length_a       7.620549
_cell_length_b       7.620549
_cell_length_c       7.620549
_cell_angle_alpha    90.0
_cell_angle_beta     90.0
_cell_angle_gamma    90.0

_space_group_name_H-M_alt    "P 1"
_space_group_IT_number       1

loop_
  _space_group_symop_operation_xyz
  'x, y, z'

loop_
  _atom_site_type_symbol
  _atom_site_label
  _atom_site_symmetry_multiplicity
  _atom_site_fract_x
  _atom_site_fract_y
  _atom_site_fract_z
  _atom_site_occupancy
  Sn  Sn1       1.0  0.299492168917706  0.5961781191134123  0.7388256263113356  1.0000
  Sn  Sn2       1.0  0.8944303480216869  0.47004028788818475  0.2515829944706845  1.0000
  Sn  Sn3       1.0  0.5922713710880466  0.9419408467470894  0.30949839334095974  1.0000
  Sn  Sn4       1.0  0.23535517590429247  0.209289840565452  0.8141553248276133  1.0000
  W   W1        1.0  0.393682609753801  0.39285460358854035  0.2608781136764965  1.0000
  W   W2        1.0  0.8107866519706592  0.554720289885413  0.7462136214436569  1.0000
  W   W3        1.0  0.6250976581555051  0.07606542175892875  0.8129393236763566  1.0000
  W   W4        1.0  0.17164135624080767  0.8698846134206614  0.23866007858513963  1.0000
  O   O1        1.0  0.6903551849056613  0.31257500447644637  0.7129110864469344  1.0000
  O   O2        1.0  0.12501830233684363  0.04008131361509239  0.3860385222018914  1.0000
  O   O3        1.0  0.41191889001500676  0.4501003160692354  0.5013298868977649  1.0000
  O   O4        1.0  0.6530255332526119  0.5327913974802996  0.2542066404163073  1.0000
  O   O5        1.0  0.45998853537499473  0.16301951229827644  0.27622594103889775  1.0000
  O   O6        1.0  0.3873910221865198  0.32814903712029264  0.0019017141906310748  1.0000
  O   O7        1.0  0.5873561249831828  0.6422781310150869  0.7387710992110668  1.0000
  O   O8        1.0  0.18889442802133144  0.03805825440531874  0.05768399360395672  1.0000
  O   O9        1.0  0.39360532227014394  0.0034209188696899162  0.8059565685395873  1.0000
  O   O10       1.0  0.9665954395090026  0.6131495727625245  0.5660596616830657  1.0000
  O   O11       1.0  0.16858676775166084  0.3659803769318444  0.2836701202171609  1.0000
  O   O12       1.0  0.3740105640578486  0.7495972581436277  0.22445409686726178  1.0000
  O   O13       1.0  0.9783493866063822  0.7354918026210263  0.16998877577836866  1.0000
  O   O14       1.0  0.9314296660691896  0.5199918980667537  0.9630410050016227  1.0000
  O   O15       1.0  0.7259827486923083  0.02595330780731658  0.013593873219421626  1.0000
  O   O16       1.0  0.7163363493501956  0.9309977105683859  0.6498000748698938  1.0000
data_image119
_chemical_formula_structural       Sn4W4O16
_chemical_formula_sum              "Sn4 W4 O16"
_cell_length_a       7.620549
_cell_length_b       7.620549
_cell_length_c       7.620549
_cell_angle_alpha    90.0
_cell_angle_beta     90.0
_cell_angle_gamma    90.0

_space_group_name_H-M_alt    "P 1"
_space_group_IT_number       1

loop_
  _space_group_symop_operation_xyz
  'x, y, z'

loop_
  _atom_site_type_symbol
  _atom_site_label
  _atom_site_symmetry_multiplicity
  _atom_site_fract_x
  _atom_site_fract_y
  _atom_site_fract_z
  _atom_site_occupancy
  Sn  Sn1       1.0  0.3534355193316785  0.5723908227061715  0.7319943704863484  1.0000
  Sn  Sn2       1.0  0.9097870252787446  0.4882226772430248  0.21844240558853062  1.0000
  Sn  Sn3       1.0  0.5957057290773726  0.9115202882730257  0.27837902777649165  1.0000
  Sn  Sn4       1.0  0.15888989699738137  0.21410515547143524  0.8754907448473365  1.0000
  W   W1        1.0  0.42965086143135456  0.40181419481439473  0.2839012355986592  1.0000
  W   W2        1.0  0.843760694589974  0.49952421194171875  0.7586431776200453  1.0000
  W   W3        1.0  0.5872656268602908  0.07120053400358647  0.783858573462507  1.0000
  W   W4        1.0  0.13783061328312995  0.939265671301737  0.22739595655935665  1.0000
  O   O1        1.0  0.73417250407718  0.266924994634389  0.7909109161738708  1.0000
  O   O2        1.0  0.11589501142214333  0.9929934463531758  0.4502501414199602  1.0000
  O   O3        1.0  0.49913264781458405  0.5192544794053047  0.49829367914031203  1.0000
  O   O4        1.0  0.6465826086246973  0.46638973208848644  0.1952441430328884  1.0000
  O   O5        1.0  0.476792914961548  0.15038404297378224  0.3489166326147591  1.0000
  O   O6        1.0  0.38759322441358335  0.3875425980150347  0.025681760917020232  1.0000
  O   O7        1.0  0.7044174796068856  0.6363140036045876  0.8550782266770224  1.0000
  O   O8        1.0  0.07106593166512266  0.03318233302616047  0.9979877845769841  1.0000
  O   O9        1.0  0.32779585789744037  0.05421544891197491  0.7660891796809387  1.0000
  O   O10       1.0  0.9205717201409992  0.5031789022777469  0.5356255969053486  1.0000
  O   O11       1.0  0.19410388303189197  0.46275890701026173  0.283355239298284  1.0000
  O   O12       1.0  0.36483341033431493  0.828342267277983  0.254289239235319  1.0000
  O   O13       1.0  0.9926989327077131  0.7504029578367835  0.15557013432545516  1.0000
  O   O14       1.0  0.021836702024013593  0.5348649948741673  0.9107455639883136  1.0000
  O   O15       1.0  0.6253533886914238  0.9336319750793096  0.9729889234228952  1.0000
  O   O16       1.0  0.7656383110741408  0.9705355247643077  0.6796475804308921  1.0000
data_image120
_chemical_formula_structural       Sn4W4O16
_chemical_formula_sum              "Sn4 W4 O16"
_cell_length_a       7.620549
_cell_length_b       7.620549
_cell_length_c       7.620549
_cell_angle_alpha    90.0
_cell_angle_beta     90.0
_cell_angle_gamma    90.0

_space_group_name_H-M_alt    "P 1"
_space_group_IT_number       1

loop_
  _space_group_symop_operation_xyz
  'x, y, z'

loop_
  _atom_site_type_symbol
  _atom_site_label
  _atom_site_symmetry_multiplicity
  _atom_site_fract_x
  _atom_site_fract_y
  _atom_site_fract_z
  _atom_site_occupancy
  Sn  Sn1       1.0  0.403705540609488  0.6084845070741715  0.7383209294212497  1.0000
  Sn  Sn2       1.0  0.9560358623150188  0.47628926877344646  0.246464026329019  1.0000
  Sn  Sn3       1.0  0.6306445593819507  0.8917248850920202  0.27849256230776265  1.0000
  Sn  Sn4       1.0  0.15337456863939744  0.2519801529931198  0.8674404178423434  1.0000
  W   W1        1.0  0.45015141124164526  0.36637725090342277  0.29342914732454506  1.0000
  W   W2        1.0  0.8388471011682606  0.4844336303248823  0.7448395113452835  1.0000
  W   W3        1.0  0.5931070014822536  0.05148529982573828  0.7926930032178303  1.0000
  W   W4        1.0  0.07083075107994019  0.9647203040508534  0.2274987198977653  1.0000
  O   O1        1.0  0.7325176069106976  0.2627425035927329  0.830311077496963  1.0000
  O   O2        1.0  0.9881773488210631  0.14515800651937247  0.34181891376622553  1.0000
  O   O3        1.0  0.5150228415654851  0.4687911545473754  0.5136881545788486  1.0000
  O   O4        1.0  0.5889742408062315  0.5048108277955863  0.17466014092783866  1.0000
  O   O5        1.0  0.5607970532568669  0.1483132120056204  0.3608911183825198  1.0000
  O   O6        1.0  0.3697860886450075  0.29343296347205805  0.985583985460106  1.0000
  O   O7        1.0  0.6524759606329769  0.6362778379129913  0.7347489605863537  1.0000
  O   O8        1.0  0.034445827154299315  0.04606333627111425  0.9830762070000246  1.0000
  O   O9        1.0  0.3837359513257964  0.15640278954003292  0.680070025671746  1.0000
  O   O10       1.0  0.8813725485504036  0.46121406504276397  0.5056398372265221  1.0000
  O   O11       1.0  0.21161109110285917  0.4174589531975991  0.30191946623911564  1.0000
  O   O12       1.0  0.2971634642938594  0.9573104574450966  0.2588896087763258  1.0000
  O   O13       1.0  0.9346819883305644  0.7577014079148149  0.26731917790962656  1.0000
  O   O14       1.0  0.990206479932071  0.5808071064948959  0.905994952473989  1.0000
  O   O15       1.0  0.6167824110391227  0.9361809811000315  0.004807332307279255  1.0000
  O   O16       1.0  0.6778703629481139  0.9268657323889761  0.6008721229285203  1.0000
data_image121
_chemical_formula_structural       Sn4W4O16
_chemical_formula_sum              "Sn4 W4 O16"
_cell_length_a       7.620549
_cell_length_b       7.620549
_cell_length_c       7.620549
_cell_angle_alpha    90.0
_cell_angle_beta     90.0
_cell_angle_gamma    90.0

_space_group_name_H-M_alt    "P 1"
_space_group_IT_number       1

loop_
  _space_group_symop_operation_xyz
  'x, y, z'

loop_
  _atom_site_type_symbol
  _atom_site_label
  _atom_site_symmetry_multiplicity
  _atom_site_fract_x
  _atom_site_fract_y
  _atom_site_fract_z
  _atom_site_occupancy
  Sn  Sn1       1.0  0.4147361471927463  0.6181567304800599  0.746949426390747  1.0000
  Sn  Sn2       1.0  0.9877342646638033  0.42661632063391763  0.2843090920061098  1.0000
  Sn  Sn3       1.0  0.6093677213163294  0.8550851216649803  0.34221418184175123  1.0000
  Sn  Sn4       1.0  0.20186234326893213  0.25136632942832665  0.8291918964108456  1.0000
  W   W1        1.0  0.48282977384084225  0.35785290204443293  0.2530841538233437  1.0000
  W   W2        1.0  0.8089425727095709  0.4826966788057201  0.7159840968488579  1.0000
  W   W3        1.0  0.5891289048890096  0.07606923438186727  0.7919309615932277  1.0000
  W   W4        1.0  0.033624217510503485  0.9949949111335138  0.20007122867178448  1.0000
  O   O1        1.0  0.665681963897235  0.3126723127433101  0.8290678110700858  1.0000
  O   O2        1.0  0.8957520099110879  0.1949044743247941  0.2645573854987646  1.0000
  O   O3        1.0  0.6356116350719567  0.5205806720884381  0.5567781803701206  1.0000
  O   O4        1.0  0.5443652740425786  0.5701793987893964  0.20841489636613256  1.0000
  O   O5        1.0  0.5438922577188922  0.16720224687735727  0.3875013120130744  1.0000
  O   O6        1.0  0.3210521576853944  0.30166394181822875  0.08293861952605389  1.0000
  O   O7        1.0  0.6595668066630722  0.6289226216561455  0.8984157883341802  1.0000
  O   O8        1.0  0.11555639523034758  0.03419481450622186  0.9723483276210846  1.0000
  O   O9        1.0  0.348739438514153  0.055930688736999974  0.6695209805806657  1.0000
  O   O10       1.0  0.9465444313070315  0.39897047516704476  0.539461707526253  1.0000
  O   O11       1.0  0.32057635362385384  0.37542001787292784  0.43001900422419803  1.0000
  O   O12       1.0  0.19071983312558416  0.019894137942372492  0.37449084055519705  1.0000
  O   O13       1.0  0.879364628933469  0.8054990137336102  0.2693650996462357  1.0000
  O   O14       1.0  0.029396414041004196  0.4215326405897265  0.8989276042095826  1.0000
  O   O15       1.0  0.5424278514984789  0.02841636111087474  0.008806790095848172  1.0000
  O   O16       1.0  0.7180061758042776  0.9195503584265674  0.6343823846521297  1.0000
data_image122
_chemical_formula_structural       Sn4W4O16
_chemical_formula_sum              "Sn4 W4 O16"
_cell_length_a       7.620549
_cell_length_b       7.620549
_cell_length_c       7.620549
_cell_angle_alpha    90.0
_cell_angle_beta     90.0
_cell_angle_gamma    90.0

_space_group_name_H-M_alt    "P 1"
_space_group_IT_number       1

loop_
  _space_group_symop_operation_xyz
  'x, y, z'

loop_
  _atom_site_type_symbol
  _atom_site_label
  _atom_site_symmetry_multiplicity
  _atom_site_fract_x
  _atom_site_fract_y
  _atom_site_fract_z
  _atom_site_occupancy
  Sn  Sn1       1.0  0.4369783668055947  0.5903372247545143  0.7571232425549461  1.0000
  Sn  Sn2       1.0  0.9993864188959097  0.4736976117121874  0.26085428094084057  1.0000
  Sn  Sn3       1.0  0.5609684225970551  0.8775407897614049  0.40519622381561177  1.0000
  Sn  Sn4       1.0  0.20187696899001448  0.22071055410747784  0.8147214059467373  1.0000
  W   W1        1.0  0.4856392002468778  0.3592348733791061  0.2784171480592042  1.0000
  W   W2        1.0  0.8225295378483783  0.50132671091985  0.7174625388444015  1.0000
  W   W3        1.0  0.6080415553152064  0.06744816121801885  0.7594264085947021  1.0000
  W   W4        1.0  0.9446142763140731  0.9893644557622202  0.18208886425521964  1.0000
  O   O1        1.0  0.718421737477824  0.3055450882055587  0.8090141541570604  1.0000
  O   O2        1.0  0.9072697328395379  0.1695787913281612  0.3262699769928663  1.0000
  O   O3        1.0  0.6482365003701356  0.5484304360217344  0.5646068759436398  1.0000
  O   O4        1.0  0.6802459230965421  0.5171310316965998  0.20075930811662518  1.0000
  O   O5        1.0  0.522676021229174  0.1635269600123685  0.4114298056246275  1.0000
  O   O6        1.0  0.4285617842213052  0.2446904409497017  0.03888486484324756  1.0000
  O   O7        1.0  0.8236088286043245  0.6862718784446447  0.8898165585047042  1.0000
  O   O8        1.0  0.11630692510016051  0.039591171374425915  0.9884998406862507  1.0000
  O   O9        1.0  0.38782829052938816  0.976565397276835  0.7845298183899556  1.0000
  O   O10       1.0  0.9843596510692594  0.4180673174952569  0.5632932754144455  1.0000
  O   O11       1.0  0.2974697647373689  0.42865135290888123  0.4026819430869865  1.0000
  O   O12       1.0  0.1405242121844532  0.9049420722190684  0.274165180977407  1.0000
  O   O13       1.0  0.7999892872349387  0.840604296736323  0.30417170539142047  1.0000
  O   O14       1.0  0.1295369935571406  0.4783001902396792  0.8516683275188004  1.0000
  O   O15       1.0  0.7604426058252953  0.02111154807277901  0.9895859560627954  1.0000
  O   O16       1.0  0.7276828358017754  0.893128069737286  0.6485671501963508  1.0000
data_image123
_chemical_formula_structural       Sn4W4O16
_chemical_formula_sum              "Sn4 W4 O16"
_cell_length_a       7.620549
_cell_length_b       7.620549
_cell_length_c       7.620549
_cell_angle_alpha    90.0
_cell_angle_beta     90.0
_cell_angle_gamma    90.0

_space_group_name_H-M_alt    "P 1"
_space_group_IT_number       1

loop_
  _space_group_symop_operation_xyz
  'x, y, z'

loop_
  _atom_site_type_symbol
  _atom_site_label
  _atom_site_symmetry_multiplicity
  _atom_site_fract_x
  _atom_site_fract_y
  _atom_site_fract_z
  _atom_site_occupancy
  Sn  Sn1       1.0  0.3853204466734443  0.5950118647828183  0.7770739497421748  1.0000
  Sn  Sn2       1.0  0.9328622074016424  0.517278459249018  0.22454794272870227  1.0000
  Sn  Sn3       1.0  0.5262108028463908  0.8506037140876503  0.43010683535276983  1.0000
  Sn  Sn4       1.0  0.16693589733368974  0.17271612263830718  0.788178807118236  1.0000
  W   W1        1.0  0.494388784385393  0.37773851452937496  0.2829398205095504  1.0000
  W   W2        1.0  0.8726985836423672  0.5137361174156209  0.6712266075811919  1.0000
  W   W3        1.0  0.6412259455162556  0.07138753215974089  0.8061285959723092  1.0000
  W   W4        1.0  0.9433005633575552  0.963579930368085  0.16992896224555393  1.0000
  O   O1        1.0  0.7071633350700458  0.34125643251373516  0.7704340435937003  1.0000
  O   O2        1.0  0.9705914254507692  0.10846795389074838  0.33694966941253734  1.0000
  O   O3        1.0  0.6909450818947216  0.6712828707729009  0.7010460978801805  1.0000
  O   O4        1.0  0.7088476899233751  0.485624081605345  0.3484208081820547  1.0000
  O   O5        1.0  0.4284727894369437  0.2018070444234728  0.4173057298271593  1.0000
  O   O6        1.0  0.5033288426721871  0.3163992049564511  0.0588181543250788  1.0000
  O   O7        1.0  0.9891458286935092  0.6260692223902692  0.8188471399404924  1.0000
  O   O8        1.0  0.09081848970952335  0.06983081229935117  0.023444634011333742  1.0000
  O   O9        1.0  0.45005053868816935  0.9213363396136611  0.8488860806676689  1.0000
  O   O10       1.0  0.01666110491121165  0.4403729852066316  0.4893909277149937  1.0000
  O   O11       1.0  0.3648044568383569  0.5460633762375833  0.38565737251914567  1.0000
  O   O12       1.0  0.06426052053055753  0.7711728852902217  0.2987705529240032  1.0000
  O   O13       1.0  0.7197619826188354  0.8705679283496293  0.2318271760738783  1.0000
  O   O14       1.0  0.18932463359715918  0.38774723623233304  0.9502408470187728  1.0000
  O   O15       1.0  0.7945716021415045  0.9731640429478189  0.9765625099420533  1.0000
  O   O16       1.0  0.7208957243294584  0.005986233220667492  0.5898873937441816  1.0000
data_image124
_chemical_formula_structural       Sn4W4O16
_chemical_formula_sum              "Sn4 W4 O16"
_cell_length_a       7.620549
_cell_length_b       7.620549
_cell_length_c       7.620549
_cell_angle_alpha    90.0
_cell_angle_beta     90.0
_cell_angle_gamma    90.0

_space_group_name_H-M_alt    "P 1"
_space_group_IT_number       1

loop_
  _space_group_symop_operation_xyz
  'x, y, z'

loop_
  _atom_site_type_symbol
  _atom_site_label
  _atom_site_symmetry_multiplicity
  _atom_site_fract_x
  _atom_site_fract_y
  _atom_site_fract_z
  _atom_site_occupancy
  Sn  Sn1       1.0  0.34165031958644226  0.5281164719285087  0.7845109084332411  1.0000
  Sn  Sn2       1.0  0.9555807689409199  0.5143454088733326  0.20363040221242182  1.0000
  Sn  Sn3       1.0  0.5460852758587573  0.8612902812552617  0.4621383504475832  1.0000
  Sn  Sn4       1.0  0.1656637041096987  0.0995299898215647  0.7779496156519539  1.0000
  W   W1        1.0  0.47823911232204175  0.39937066833086454  0.29863608863636826  1.0000
  W   W2        1.0  0.8749030160305347  0.5204823023875592  0.6435853191088364  1.0000
  W   W3        1.0  0.656960349780222  0.12424875834857865  0.7858475869200325  1.0000
  W   W4        1.0  0.9193893607289695  0.9529737872989664  0.19803733876817034  1.0000
  O   O1        1.0  0.7977600225966854  0.3493625051286415  0.8170043387808215  1.0000
  O   O2        1.0  0.9204660547743839  0.16956755184066297  0.29119264586514837  1.0000
  O   O3        1.0  0.7592670173322624  0.7285317851689703  0.6187881932524282  1.0000
  O   O4        1.0  0.6633819790838776  0.4890037365701554  0.44597426176131894  1.0000
  O   O5        1.0  0.36207358244501237  0.3169880191090726  0.5022264090171922  1.0000
  O   O6        1.0  0.6284950822414253  0.3312948127978709  0.10769627624264952  1.0000
  O   O7        1.0  0.006875819759720354  0.5779379194242519  0.8227807944655299  1.0000
  O   O8        1.0  0.13026496039895066  0.9869699338685756  0.07147576603300002  1.0000
  O   O9        1.0  0.46143178978202953  0.9586765190126634  0.7854245293042884  1.0000
  O   O10       1.0  0.06976571707614093  0.4630300413927155  0.4807378550127732  1.0000
  O   O11       1.0  0.3826082248062173  0.5627295875803581  0.16397949846299223  1.0000
  O   O12       1.0  0.9549376126242642  0.8103320136510801  0.4058998794175648  1.0000
  O   O13       1.0  0.6953360924019008  0.7875789674424785  0.2722351417088678  1.0000
  O   O14       1.0  0.3118115005346331  0.30243428962140145  0.8795663346401981  1.0000
  O   O15       1.0  0.7525849010660721  0.026358874721376803  0.992194097030785  1.0000
  O   O16       1.0  0.7773952187060785  0.05421027776520515  0.5923236262951787  1.0000
data_image125
_chemical_formula_structural       Sn4W4O16
_chemical_formula_sum              "Sn4 W4 O16"
_cell_length_a       7.620549
_cell_length_b       7.620549
_cell_length_c       7.620549
_cell_angle_alpha    90.0
_cell_angle_beta     90.0
_cell_angle_gamma    90.0

_space_group_name_H-M_alt    "P 1"
_space_group_IT_number       1

loop_
  _space_group_symop_operation_xyz
  'x, y, z'

loop_
  _atom_site_type_symbol
  _atom_site_label
  _atom_site_symmetry_multiplicity
  _atom_site_fract_x
  _atom_site_fract_y
  _atom_site_fract_z
  _atom_site_occupancy
  Sn  Sn1       1.0  0.32798749799845556  0.5037849878964368  0.8192559754136879  1.0000
  Sn  Sn2       1.0  0.9625056647356927  0.4908958178277316  0.2663719590841292  1.0000
  Sn  Sn3       1.0  0.6195908743012803  0.8634524429750278  0.48666444175532275  1.0000
  Sn  Sn4       1.0  0.21149110297260143  0.9996992402281976  0.8139281389560837  1.0000
  W   W1        1.0  0.48669915465745195  0.3907881954350373  0.25961604571448765  1.0000
  W   W2        1.0  0.8495295879084386  0.5326929728332418  0.6595643172489133  1.0000
  W   W3        1.0  0.6397868735917627  0.1679339265699277  0.8114629733610593  1.0000
  W   W4        1.0  0.8889345972751866  0.9881555505059515  0.14565644227932936  1.0000
  O   O1        1.0  0.6378599811975697  0.4209004567899322  0.7780656052272296  1.0000
  O   O2        1.0  0.9228985489073025  0.20579316444992105  0.1729403281371682  1.0000
  O   O3        1.0  0.8236565089866328  0.7674229309094512  0.6279595397969675  1.0000
  O   O4        1.0  0.6804886116707706  0.5220109110736091  0.35727330782449307  1.0000
  O   O5        1.0  0.4656028300743239  0.22371525045053337  0.4243006766685734  1.0000
  O   O6        1.0  0.5964761310365159  0.2830722730929412  0.03746800796305084  1.0000
  O   O7        1.0  0.0018630299130886795  0.566860776330229  0.8269345275099356  1.0000
  O   O8        1.0  0.11261578227240375  0.927797829219129  0.07239061778834198  1.0000
  O   O9        1.0  0.5064759950535105  0.932321829201036  0.7615434944464115  1.0000
  O   O10       1.0  0.007909789373385247  0.43053880493873076  0.5010241190957199  1.0000
  O   O11       1.0  0.28666872096128077  0.5076598078615618  0.2658841021677995  1.0000
  O   O12       1.0  0.9278225725306698  0.8029777320345771  0.330749320066617  1.0000
  O   O13       1.0  0.6633915378408842  0.9344758887450216  0.20789124006583468  1.0000
  O   O14       1.0  0.3449829282261173  0.25001025905457064  0.8430534896959075  1.0000
  O   O15       1.0  0.8662608612651163  0.130445919319756  0.8530038436975336  1.0000
  O   O16       1.0  0.7461402557474669  0.13261537874810037  0.5855873578044909  1.0000
data_image126
_chemical_formula_structural       Sn4W4O16
_chemical_formula_sum              "Sn4 W4 O16"
_cell_length_a       7.620549
_cell_length_b       7.620549
_cell_length_c       7.620549
_cell_angle_alpha    90.0
_cell_angle_beta     90.0
_cell_angle_gamma    90.0

_space_group_name_H-M_alt    "P 1"
_space_group_IT_number       1

loop_
  _space_group_symop_operation_xyz
  'x, y, z'

loop_
  _atom_site_type_symbol
  _atom_site_label
  _atom_site_symmetry_multiplicity
  _atom_site_fract_x
  _atom_site_fract_y
  _atom_site_fract_z
  _atom_site_occupancy
  Sn  Sn1       1.0  0.2979548803696495  0.5069693249008101  0.8168025404164537  1.0000
  Sn  Sn2       1.0  0.012624971569449084  0.41993888692022  0.25690425702601377  1.0000
  Sn  Sn3       1.0  0.672920928519455  0.8999354155383492  0.44992502027476255  1.0000
  Sn  Sn4       1.0  0.2530391949357733  0.9256405449921876  0.7749777138163176  1.0000
  W   W1        1.0  0.45481182755278105  0.4198242939021319  0.2443061367754003  1.0000
  W   W2        1.0  0.8452345255034925  0.5223048482625647  0.7235086400154996  1.0000
  W   W3        1.0  0.6170888774819242  0.18570622491746533  0.814891553184475  1.0000
  W   W4        1.0  0.8957449841163289  0.003554028612031024  0.14955023302866596  1.0000
  O   O1        1.0  0.5996160053561889  0.4737051951445456  0.6919855585085908  1.0000
  O   O2        1.0  0.027394704942649593  0.15577655089961653  0.3059638630842343  1.0000
  O   O3        1.0  0.8696974072848047  0.7679291668626888  0.7253332309270134  1.0000
  O   O4        1.0  0.6347952712754223  0.5483946141091451  0.353377740205366  1.0000
  O   O5        1.0  0.4325292651148398  0.18962866036365256  0.2887329181234516  1.0000
  O   O6        1.0  0.5134338239856298  0.4201111794455628  0.022006639406269665  1.0000
  O   O7        1.0  0.9172897059123355  0.4948563604858379  0.9482738025233586  1.0000
  O   O8        1.0  0.08249950574614731  0.9136329037420234  0.009110879211990025  1.0000
  O   O9        1.0  0.530396581273736  0.9595024842157847  0.7723134702053405  1.0000
  O   O10       1.0  0.012957940565929043  0.4611933822170581  0.5780671668791744  1.0000
  O   O11       1.0  0.22813035914558083  0.5188176638847001  0.2272717566409095  1.0000
  O   O12       1.0  0.946265126370602  0.8055907530168555  0.2779892072096348  1.0000
  O   O13       1.0  0.6546917609081715  0.9229498507746817  0.159097261715556  1.0000
  O   O14       1.0  0.3412987642809245  0.25565750478472415  0.7940877963403336  1.0000
  O   O15       1.0  0.846089488556196  0.15600571281524853  0.9128531246337176  1.0000
  O   O16       1.0  0.6753527118874877  0.1958389588579008  0.5843685760743539  1.0000
data_image127
_chemical_formula_structural       Sn4W4O16
_chemical_formula_sum              "Sn4 W4 O16"
_cell_length_a       7.620549
_cell_length_b       7.620549
_cell_length_c       7.620549
_cell_angle_alpha    90.0
_cell_angle_beta     90.0
_cell_angle_gamma    90.0

_space_group_name_H-M_alt    "P 1"
_space_group_IT_number       1

loop_
  _space_group_symop_operation_xyz
  'x, y, z'

loop_
  _atom_site_type_symbol
  _atom_site_label
  _atom_site_symmetry_multiplicity
  _atom_site_fract_x
  _atom_site_fract_y
  _atom_site_fract_z
  _atom_site_occupancy
  Sn  Sn1       1.0  0.27430505397871086  0.4854397716906837  0.8075048763512293  1.0000
  Sn  Sn2       1.0  0.0425591771084195  0.45275578388431353  0.27225284236854097  1.0000
  Sn  Sn3       1.0  0.6870333819150817  0.8781425550413787  0.4600798049224383  1.0000
  Sn  Sn4       1.0  0.1946256829175078  0.9390449115227104  0.7488829125049198  1.0000
  W   W1        1.0  0.48045826397034086  0.4484328690659504  0.24009746568743495  1.0000
  W   W2        1.0  0.8907630320281176  0.5375928542706776  0.7188702420563383  1.0000
  W   W3        1.0  0.5616215778649016  0.18523677687573692  0.8142210296435658  1.0000
  W   W4        1.0  0.9277092024335744  0.9459305946798401  0.17236109317995224  1.0000
  O   O1        1.0  0.6889112387828906  0.4497236111151216  0.6628549482242658  1.0000
  O   O2        1.0  0.9924208997522068  0.18572695466785843  0.24853975760103397  1.0000
  O   O3        1.0  0.8539367317932167  0.7776176144775209  0.6480808696309243  1.0000
  O   O4        1.0  0.5392549218418337  0.6365387152784783  0.37575137573575995  1.0000
  O   O5        1.0  0.32380757049847564  0.3005411096862708  0.32090766731844933  1.0000
  O   O6        1.0  0.47298438118177155  0.39692135555093305  0.9679594815305234  1.0000
  O   O7        1.0  0.9939736480441664  0.47973453816608347  0.927418157870456  1.0000
  O   O8        1.0  0.05535039952182331  0.005267973870603626  0.9468457751093651  1.0000
  O   O9        1.0  0.5087386995096819  0.9853473719094565  0.9155482521922423  1.0000
  O   O10       1.0  0.027227542860648508  0.4298452384148583  0.5449438130128708  1.0000
  O   O11       1.0  0.23721787995619703  0.5605743540764984  0.20890131186732566  1.0000
  O   O12       1.0  0.9285944511880215  0.709096122183382  0.2627835499985159  1.0000
  O   O13       1.0  0.7054108742474634  0.9411280773603965  0.15448840858546778  1.0000
  O   O14       1.0  0.3079061924829456  0.21582238831962477  0.751570404203224  1.0000
  O   O15       1.0  0.7170253206958189  0.23377081868656682  0.9982667610976653  1.0000
  O   O16       1.0  0.6817730047293241  0.08502973746537168  0.6248865355775204  1.0000
data_image128
_chemical_formula_structural       Sn4W4O16
_chemical_formula_sum              "Sn4 W4 O16"
_cell_length_a       7.620549
_cell_length_b       7.620549
_cell_length_c       7.620549
_cell_angle_alpha    90.0
_cell_angle_beta     90.0
_cell_angle_gamma    90.0

_space_group_name_H-M_alt    "P 1"
_space_group_IT_number       1

loop_
  _space_group_symop_operation_xyz
  'x, y, z'

loop_
  _atom_site_type_symbol
  _atom_site_label
  _atom_site_symmetry_multiplicity
  _atom_site_fract_x
  _atom_site_fract_y
  _atom_site_fract_z
  _atom_site_occupancy
  Sn  Sn1       1.0  0.3014990277996056  0.5159510573270393  0.771358303439382  1.0000
  Sn  Sn2       1.0  0.028615038634832057  0.4451149426169858  0.2750055180641918  1.0000
  Sn  Sn3       1.0  0.6826585235464314  0.8760982458000371  0.40865341007265604  1.0000
  Sn  Sn4       1.0  0.14848224269567534  0.9628785038600408  0.7358891836420081  1.0000
  W   W1        1.0  0.454778561096299  0.467979284819742  0.22814148237878545  1.0000
  W   W2        1.0  0.8949322733586145  0.5681125228238474  0.7442730973117119  1.0000
  W   W3        1.0  0.5493620713730127  0.146681892461079  0.8228853102673103  1.0000
  W   W4        1.0  0.9637989622042852  0.9276121209751448  0.19855188174663232  1.0000
  O   O1        1.0  0.6632744452541102  0.49941053525894646  0.7621708187747657  1.0000
  O   O2        1.0  0.9326026874165495  0.055692926908330664  0.4019736313827946  1.0000
  O   O3        1.0  0.8806616326584762  0.8160654582619569  0.7130764743691178  1.0000
  O   O4        1.0  0.6800465530746754  0.5024168916247134  0.22579821916661777  1.0000
  O   O5        1.0  0.3608140995484534  0.31709041811859673  0.39127485435061615  1.0000
  O   O6        1.0  0.4631998959563566  0.3200257933182886  0.9812628268982397  1.0000
  O   O7        1.0  0.003603409864107587  0.5208157658458892  0.9555094805730602  1.0000
  O   O8        1.0  0.09247238604290992  0.9199554813669443  0.996925523936883  1.0000
  O   O9        1.0  0.48339744033328824  0.958561545204619  0.9446252777144288  1.0000
  O   O10       1.0  0.03119725083477291  0.49974742454862847  0.5628163168296308  1.0000
  O   O11       1.0  0.27101636488309827  0.6460171359331095  0.17884933319595125  1.0000
  O   O12       1.0  0.9989742359216017  0.7296339759126557  0.3011358590590094  1.0000
  O   O13       1.0  0.7367237403719967  0.9619457961813498  0.14026984921583743  1.0000
  O   O14       1.0  0.2965068411207966  0.2025389662071338  0.7454915745129278  1.0000
  O   O15       1.0  0.7768448599806438  0.09727543317951391  0.8486007795980103  1.0000
  O   O16       1.0  0.603324686077319  0.09551409925609478  0.5861099184928524  1.0000
data_image129
_chemical_formula_structural       Sn4W4O16
_chemical_formula_sum              "Sn4 W4 O16"
_cell_length_a       7.620549
_cell_length_b       7.620549
_cell_length_c       7.620549
_cell_angle_alpha    90.0
_cell_angle_beta     90.0
_cell_angle_gamma    90.0

_space_group_name_H-M_alt    "P 1"
_space_group_IT_number       1

loop_
  _space_group_symop_operation_xyz
  'x, y, z'

loop_
  _atom_site_type_symbol
  _atom_site_label
  _atom_site_symmetry_multiplicity
  _atom_site_fract_x
  _atom_site_fract_y
  _atom_site_fract_z
  _atom_site_occupancy
  Sn  Sn1       1.0  0.30134868106100793  0.4864398736440963  0.7619926483438435  1.0000
  Sn  Sn2       1.0  0.9641773088406147  0.4983810614743232  0.27667448847434534  1.0000
  Sn  Sn3       1.0  0.609379911556537  0.8474179464414093  0.4403387361706103  1.0000
  Sn  Sn4       1.0  0.14186402167168347  0.9865896483365618  0.7696924392761315  1.0000
  W   W1        1.0  0.446513125161866  0.43738069034537086  0.21215330933072474  1.0000
  W   W2        1.0  0.8771579040299848  0.5635723494530602  0.7321471852196444  1.0000
  W   W3        1.0  0.5990975107074732  0.1258926110161249  0.7978272952291082  1.0000
  W   W4        1.0  0.005645699055175646  0.9639313324096959  0.2184756387849379  1.0000
  O   O1        1.0  0.669521518763389  0.4633038041933317  0.717625131745519  1.0000
  O   O2        1.0  0.12580222061590773  0.06393514590037033  0.4004978124563783  1.0000
  O   O3        1.0  0.7611872737492598  0.7922130859755109  0.6441583839095859  1.0000
  O   O4        1.0  0.578410826293646  0.6155313879770952  0.2939978758692109  1.0000
  O   O5        1.0  0.3558390585313283  0.332843367856305  0.41539521465133167  1.0000
  O   O6        1.0  0.5482545705350734  0.24550770046075432  0.09195372488751437  1.0000
  O   O7        1.0  0.9830545944087911  0.5761282827724715  0.9474859115735771  1.0000
  O   O8        1.0  0.1225062541321725  0.02288746309966405  0.02488084251236715  1.0000
  O   O9        1.0  0.5316558178796994  0.9143182864162935  0.8534568203655846  1.0000
  O   O10       1.0  0.05314399088185855  0.5000586714565718  0.5854783917325639  1.0000
  O   O11       1.0  0.2687000326018027  0.5683497692440208  0.04919226533641967  1.0000
  O   O12       1.0  0.015076557640524069  0.7407650353540508  0.29642127606914404  1.0000
  O   O13       1.0  0.7565133581305323  0.007013468727277594  0.24687370957388696  1.0000
  O   O14       1.0  0.32078612598632494  0.1585791266307933  0.7388512619130488  1.0000
  O   O15       1.0  0.8309593785749706  0.12106932452242478  0.8546871320775782  1.0000
  O   O16       1.0  0.6294343167789526  0.10766269187044131  0.526672366695744  1.0000
data_image130
_chemical_formula_structural       Sn4W4O16
_chemical_formula_sum              "Sn4 W4 O16"
_cell_length_a       7.620549
_cell_length_b       7.620549
_cell_length_c       7.620549
_cell_angle_alpha    90.0
_cell_angle_beta     90.0
_cell_angle_gamma    90.0

_space_group_name_H-M_alt    "P 1"
_space_group_IT_number       1

loop_
  _space_group_symop_operation_xyz
  'x, y, z'

loop_
  _atom_site_type_symbol
  _atom_site_label
  _atom_site_symmetry_multiplicity
  _atom_site_fract_x
  _atom_site_fract_y
  _atom_site_fract_z
  _atom_site_occupancy
  Sn  Sn1       1.0  0.2862392555793838  0.5002010847432979  0.730496975750037  1.0000
  Sn  Sn2       1.0  0.0022362716385393444  0.4784559514925099  0.25579689030850705  1.0000
  Sn  Sn3       1.0  0.5576211990876948  0.8884119192986283  0.44902139458094636  1.0000
  Sn  Sn4       1.0  0.1416080618068828  0.03646526248856086  0.7395326809339505  1.0000
  W   W1        1.0  0.4415300510161915  0.42301467875572446  0.19063058997395493  1.0000
  W   W2        1.0  0.8498791815190271  0.5448606365021965  0.7446535171394635  1.0000
  W   W3        1.0  0.6227299883699611  0.10260364551298566  0.8192689025118196  1.0000
  W   W4        1.0  0.02471459109045937  0.9869463312698067  0.25430164328377436  1.0000
  O   O1        1.0  0.6832202560933489  0.3775608692466048  0.7707730943831999  1.0000
  O   O2        1.0  0.06580046911565485  0.10202726977019314  0.4720462249781041  1.0000
  O   O3        1.0  0.8170878397679381  0.6883485921144246  0.5330452429231738  1.0000
  O   O4        1.0  0.5880006827784092  0.5728688717919699  0.26787522679513004  1.0000
  O   O5        1.0  0.3199857305978951  0.4231129410919165  0.3919128302021023  1.0000
  O   O6        1.0  0.581240987613882  0.2499968638191281  0.02583623840143218  1.0000
  O   O7        1.0  0.9791174045035084  0.5949142206070472  0.9480057730870224  1.0000
  O   O8        1.0  0.12659905337178004  0.1171356462373756  0.061234537024951734  1.0000
  O   O9        1.0  0.4946305353431435  0.8937742171053581  0.8276679943195544  1.0000
  O   O10       1.0  0.03266936620634355  0.40788036754565427  0.6762993466756629  1.0000
  O   O11       1.0  0.29611749121113856  0.5226729067375194  0.023997358742055643  1.0000
  O   O12       1.0  0.09992136105829585  0.7578348224402995  0.24900041239194068  1.0000
  O   O13       1.0  0.8060181478554692  0.9432145277833359  0.24023570225372948  1.0000
  O   O14       1.0  0.32639992535563367  0.23539801830613466  0.7905363564188951  1.0000
  O   O15       1.0  0.8307848216131613  0.013527933921671384  0.8719406727013658  1.0000
  O   O16       1.0  0.6102866137177994  0.1121884576914145  0.5522488427981318  1.0000
data_image131
_chemical_formula_structural       Sn4W4O16
_chemical_formula_sum              "Sn4 W4 O16"
_cell_length_a       7.620549
_cell_length_b       7.620549
_cell_length_c       7.620549
_cell_angle_alpha    90.0
_cell_angle_beta     90.0
_cell_angle_gamma    90.0

_space_group_name_H-M_alt    "P 1"
_space_group_IT_number       1

loop_
  _space_group_symop_operation_xyz
  'x, y, z'

loop_
  _atom_site_type_symbol
  _atom_site_label
  _atom_site_symmetry_multiplicity
  _atom_site_fract_x
  _atom_site_fract_y
  _atom_site_fract_z
  _atom_site_occupancy
  Sn  Sn1       1.0  0.25155205029562766  0.45847714727915795  0.6884736135843019  1.0000
  Sn  Sn2       1.0  0.0836388046933767  0.5274016553720589  0.23445013904978154  1.0000
  Sn  Sn3       1.0  0.6163476442048017  0.8459047963213854  0.44616865323554117  1.0000
  Sn  Sn4       1.0  0.06069513257125726  0.09133118879488347  0.7588578081787645  1.0000
  W   W1        1.0  0.46180090388218653  0.4282871896589809  0.12254039158226142  1.0000
  W   W2        1.0  0.8557738530473078  0.5373070248892946  0.7783123079204964  1.0000
  W   W3        1.0  0.5918667845402509  0.07904353022399677  0.8446928739198051  1.0000
  W   W4        1.0  0.028104431106918737  0.984513607364131  0.27148921962734485  1.0000
  O   O1        1.0  0.6792910142835622  0.4641629139230473  0.9225900133461484  1.0000
  O   O2        1.0  0.04177301278326082  0.046165669822082256  0.5048528446561074  1.0000
  O   O3        1.0  0.7740014309419245  0.7429177909780936  0.6084954567243774  1.0000
  O   O4        1.0  0.6207860867334435  0.5986097316017733  0.23832907924519023  1.0000
  O   O5        1.0  0.31836233251167884  0.388905709688065  0.3208735920887008  1.0000
  O   O6        1.0  0.4965495162175506  0.20755300053173048  0.051071995154676524  1.0000
  O   O7        1.0  0.9781152793384688  0.6681499806292758  0.9229528518718859  1.0000
  O   O8        1.0  0.045369148928641044  0.20802478399878455  0.15485574258922002  1.0000
  O   O9        1.0  0.4480299758020213  0.9065033059696812  0.8373960334411125  1.0000
  O   O10       1.0  0.9744650367285025  0.3523984199820579  0.6742323185714302  1.0000
  O   O11       1.0  0.28102545457584105  0.49716928465867266  0.9807478069314316  1.0000
  O   O12       1.0  0.2291004854866776  0.828695293044932  0.2447661576181496  1.0000
  O   O13       1.0  0.8162689107567246  0.8991261774242825  0.22443505527592728  1.0000
  O   O14       1.0  0.3102494275067931  0.2118405010263295  0.7120843108382025  1.0000
  O   O15       1.0  0.8225720781828197  0.05467617987488205  0.9327324897897282  1.0000
  O   O16       1.0  0.6524907734212315  0.09343661164374639  0.6171514087093459  1.0000
data_image132
_chemical_formula_structural       Sn4W4O16
_chemical_formula_sum              "Sn4 W4 O16"
_cell_length_a       7.620549
_cell_length_b       7.620549
_cell_length_c       7.620549
_cell_angle_alpha    90.0
_cell_angle_beta     90.0
_cell_angle_gamma    90.0

_space_group_name_H-M_alt    "P 1"
_space_group_IT_number       1

loop_
  _space_group_symop_operation_xyz
  'x, y, z'

loop_
  _atom_site_type_symbol
  _atom_site_label
  _atom_site_symmetry_multiplicity
  _atom_site_fract_x
  _atom_site_fract_y
  _atom_site_fract_z
  _atom_site_occupancy
  Sn  Sn1       1.0  0.2718071569969594  0.477981886459953  0.6841090028573639  1.0000
  Sn  Sn2       1.0  0.10920052742364961  0.5343118113242029  0.18958802857093465  1.0000
  Sn  Sn3       1.0  0.6115587733090011  0.8354163712658274  0.4477072866634497  1.0000
  Sn  Sn4       1.0  0.08371679620865227  0.06082903185860972  0.77613962154068  1.0000
  W   W1        1.0  0.4872603670002972  0.4339559621649472  0.10104910038873391  1.0000
  W   W2        1.0  0.8164555098420871  0.5443602961484749  0.809772064247987  1.0000
  W   W3        1.0  0.5487794364610329  0.05579245483424493  0.8565522575439427  1.0000
  W   W4        1.0  0.05161851005380558  0.014106724592620301  0.2744035050448468  1.0000
  O   O1        1.0  0.5893742456791303  0.4661745809872615  0.8502944839393163  1.0000
  O   O2        1.0  0.08008745650255522  0.11146600395882485  0.4902723630562229  1.0000
  O   O3        1.0  0.7161677301810141  0.58066068501213  0.60526609481737  1.0000
  O   O4        1.0  0.6158718476008048  0.5968596138101263  0.18139745171939411  1.0000
  O   O5        1.0  0.3226733002199972  0.4262051249042349  0.28257294244978787  1.0000
  O   O6        1.0  0.5228191714016324  0.18184294919713  0.09194493897955808  1.0000
  O   O7        1.0  0.934797737437952  0.7527056533681635  0.9010654760594174  1.0000
  O   O8        1.0  0.009153609639152543  0.12965453100153934  0.08827894013778889  1.0000
  O   O9        1.0  0.5519043703901312  0.8220323531367458  0.8531854115269639  1.0000
  O   O10       1.0  0.9994484180222952  0.3751743658262883  0.8110947770655929  1.0000
  O   O11       1.0  0.2831650272783671  0.5170345819477483  0.977073175597638  1.0000
  O   O12       1.0  0.22310009322186097  0.84442459126904  0.24548124559099505  1.0000
  O   O13       1.0  0.864711022956124  0.8731300444839872  0.2790795380388786  1.0000
  O   O14       1.0  0.3307362250135408  0.19479776492555778  0.7550899091768335  1.0000
  O   O15       1.0  0.7597006814773103  0.10269540999841492  0.9051603754820333  1.0000
  O   O16       1.0  0.5943131404484572  0.0669327430652984  0.6067797023108984  1.0000
data_image133
_chemical_formula_structural       Sn4W4O16
_chemical_formula_sum              "Sn4 W4 O16"
_cell_length_a       7.620549
_cell_length_b       7.620549
_cell_length_c       7.620549
_cell_angle_alpha    90.0
_cell_angle_beta     90.0
_cell_angle_gamma    90.0

_space_group_name_H-M_alt    "P 1"
_space_group_IT_number       1

loop_
  _space_group_symop_operation_xyz
  'x, y, z'

loop_
  _atom_site_type_symbol
  _atom_site_label
  _atom_site_symmetry_multiplicity
  _atom_site_fract_x
  _atom_site_fract_y
  _atom_site_fract_z
  _atom_site_occupancy
  Sn  Sn1       1.0  0.320152717832572  0.4462784355282727  0.6755980459067508  1.0000
  Sn  Sn2       1.0  0.10006793607231712  0.5376665340716338  0.18097954871873764  1.0000
  Sn  Sn3       1.0  0.5553996161013722  0.8226400590434417  0.39850274724478435  1.0000
  Sn  Sn4       1.0  0.0892988555331396  0.05730963194977714  0.8088709031732345  1.0000
  W   W1        1.0  0.5084272169075974  0.42253668466922445  0.1362461680527815  1.0000
  W   W2        1.0  0.7949197628175894  0.5436397369863171  0.7837354816525884  1.0000
  W   W3        1.0  0.5495488020867497  0.07968141045144715  0.819336596267244  1.0000
  W   W4        1.0  0.07037489348790449  0.035443083264370845  0.3090457548279746  1.0000
  O   O1        1.0  0.6338531372372189  0.3472147685096865  0.7678803349889396  1.0000
  O   O2        1.0  0.07476942266144665  0.1707888484122639  0.5050248618480822  1.0000
  O   O3        1.0  0.7301842066639238  0.6587258423050317  0.5753568487619346  1.0000
  O   O4        1.0  0.696582696997438  0.45564086144524896  0.2708533812903384  1.0000
  O   O5        1.0  0.3178276939312114  0.41641403587683645  0.29472255506021283  1.0000
  O   O6        1.0  0.5302492172967641  0.18587492334789749  0.10026282278348939  1.0000
  O   O7        1.0  0.7608236334703828  0.6586046419631959  0.9900753224719911  1.0000
  O   O8        1.0  0.06307347993762942  0.2068006230978241  0.1297961329583832  1.0000
  O   O9        1.0  0.4243723003683074  0.876993172796346  0.8579194710041163  1.0000
  O   O10       1.0  0.015451561168751585  0.4290130313410329  0.8101136360343899  1.0000
  O   O11       1.0  0.33449288376234315  0.5128082630943461  0.9494133264149591  1.0000
  O   O12       1.0  0.21497514350154323  0.8172845783852546  0.32931272892653657  1.0000
  O   O13       1.0  0.843193451621356  0.9963263064711845  0.25089735059586493  1.0000
  O   O14       1.0  0.30248626450820154  0.20973199000379794  0.7750220678290604  1.0000
  O   O15       1.0  0.7575722006594047  0.013169852976099917  0.9030033748913476  1.0000
  O   O16       1.0  0.5675286123062728  0.04898451081453237  0.5725831606657694  1.0000
data_image134
_chemical_formula_structural       Sn4W4O16
_chemical_formula_sum              "Sn4 W4 O16"
_cell_length_a       7.620549
_cell_length_b       7.620549
_cell_length_c       7.620549
_cell_angle_alpha    90.0
_cell_angle_beta     90.0
_cell_angle_gamma    90.0

_space_group_name_H-M_alt    "P 1"
_space_group_IT_number       1

loop_
  _space_group_symop_operation_xyz
  'x, y, z'

loop_
  _atom_site_type_symbol
  _atom_site_label
  _atom_site_symmetry_multiplicity
  _atom_site_fract_x
  _atom_site_fract_y
  _atom_site_fract_z
  _atom_site_occupancy
  Sn  Sn1       1.0  0.2999066743498724  0.4619627979613416  0.6640583928613395  1.0000
  Sn  Sn2       1.0  0.06669600380952101  0.5113740605972077  0.21827090708978691  1.0000
  Sn  Sn3       1.0  0.5955633124533753  0.8801478647587604  0.3293659180480878  1.0000
  Sn  Sn4       1.0  0.06724607951602647  0.0907863051510922  0.8886151939703686  1.0000
  W   W1        1.0  0.5404372174856771  0.4269293786827486  0.1389057213872369  1.0000
  W   W2        1.0  0.8015413529116381  0.5549518621494357  0.7566060159416558  1.0000
  W   W3        1.0  0.5733037698718099  0.045695414945296366  0.8032698500123585  1.0000
  W   W4        1.0  0.013653774315170786  0.01530125837220786  0.3304812599900191  1.0000
  O   O1        1.0  0.7320367133579677  0.3515377405491159  0.6752404209946282  1.0000
  O   O2        1.0  0.004165925178194794  0.14679744394967495  0.513166777655458  1.0000
  O   O3        1.0  0.8053487001130312  0.7192303057761256  0.5727808878937217  1.0000
  O   O4        1.0  0.7022456070499585  0.5338626563064863  0.2929378853885034  1.0000
  O   O5        1.0  0.32763659691457364  0.4126947335197363  0.27533440111836405  1.0000
  O   O6        1.0  0.6193047833634835  0.2205475958987266  0.09054221418709163  1.0000
  O   O7        1.0  0.6555423277356738  0.5808778549464876  0.960714596229447  1.0000
  O   O8        1.0  0.09164196809816601  0.14832770837747433  0.14374545938420052  1.0000
  O   O9        1.0  0.41688450247738873  0.9032951053468785  0.8784897011966986  1.0000
  O   O10       1.0  0.021958120504396626  0.5019758757344158  0.8263363888648284  1.0000
  O   O11       1.0  0.31302482405471693  0.4586054522534441  0.9909812916712669  1.0000
  O   O12       1.0  0.17619315504682653  0.8636475467070651  0.3972536337625825  1.0000
  O   O13       1.0  0.8301597002925134  0.8669752765610367  0.20787116118767124  1.0000
  O   O14       1.0  0.4127320735575972  0.220206073777603  0.7684153519608937  1.0000
  O   O15       1.0  0.782105466337849  0.9431553337650453  0.8974992953024835  1.0000
  O   O16       1.0  0.5987912353594593  0.9911630037386897  0.5791180894188321  1.0000
data_image135
_chemical_formula_structural       Sn4W4O16
_chemical_formula_sum              "Sn4 W4 O16"
_cell_length_a       7.620549
_cell_length_b       7.620549
_cell_length_c       7.620549
_cell_angle_alpha    90.0
_cell_angle_beta     90.0
_cell_angle_gamma    90.0

_space_group_name_H-M_alt    "P 1"
_space_group_IT_number       1

loop_
  _space_group_symop_operation_xyz
  'x, y, z'

loop_
  _atom_site_type_symbol
  _atom_site_label
  _atom_site_symmetry_multiplicity
  _atom_site_fract_x
  _atom_site_fract_y
  _atom_site_fract_z
  _atom_site_occupancy
  Sn  Sn1       1.0  0.2624571178313984  0.44308281324267385  0.7198117835703653  1.0000
  Sn  Sn2       1.0  0.10996576595948016  0.4870810573050425  0.246887789351595  1.0000
  Sn  Sn3       1.0  0.5471972672164522  0.8845904678071124  0.3382832862682193  1.0000
  Sn  Sn4       1.0  0.09194938540059633  0.09395126211891226  0.9099649723356265  1.0000
  W   W1        1.0  0.49885098587615884  0.4458625456658949  0.10438257544715976  1.0000
  W   W2        1.0  0.8092638674722384  0.5291505232028552  0.7309655836232309  1.0000
  W   W3        1.0  0.5887202929625626  0.08511543919461992  0.7733537110062588  1.0000
  W   W4        1.0  0.026580809017036078  0.006951080000475729  0.3444417709379711  1.0000
  O   O1        1.0  0.752022306751224  0.2925472870964266  0.7051171362423823  1.0000
  O   O2        1.0  0.06601212066351188  0.051792506334444516  0.5610799900439098  1.0000
  O   O3        1.0  0.7186895658295323  0.693826002761778  0.5888303400502404  1.0000
  O   O4        1.0  0.6792593919502112  0.52580387877823  0.23516505422522657  1.0000
  O   O5        1.0  0.37918177606282766  0.3746190641822776  0.2925522432481528  1.0000
  O   O6        1.0  0.5713993313803709  0.20788664366726006  0.056597825380271805  1.0000
  O   O7        1.0  0.6905122723478725  0.5483103789323203  0.936087829299169  1.0000
  O   O8        1.0  0.026603013948581073  0.21468406080619573  0.19005326340068338  1.0000
  O   O9        1.0  0.5283247396270384  0.878011915655128  0.843292841713166  1.0000
  O   O10       1.0  0.0034389261006264175  0.45258118958316823  0.8700291640027388  1.0000
  O   O11       1.0  0.3498007139945489  0.5722313558122096  0.9828971849346525  1.0000
  O   O12       1.0  0.2331734579466802  0.8768842957629001  0.3052440287704436  1.0000
  O   O13       1.0  0.8263603168125453  0.8526319228888709  0.2684006262543849  1.0000
  O   O14       1.0  0.40119911318770973  0.22347309385778777  0.8046723437914101  1.0000
  O   O15       1.0  0.8213785776170076  0.04731181093887249  0.8959803199567863  1.0000
  O   O16       1.0  0.644352098970792  0.032392076980565454  0.5494091872843948  1.0000
data_image136
_chemical_formula_structural       Sn4W4O16
_chemical_formula_sum              "Sn4 W4 O16"
_cell_length_a       7.620549
_cell_length_b       7.620549
_cell_length_c       7.620549
_cell_angle_alpha    90.0
_cell_angle_beta     90.0
_cell_angle_gamma    90.0

_space_group_name_H-M_alt    "P 1"
_space_group_IT_number       1

loop_
  _space_group_symop_operation_xyz
  'x, y, z'

loop_
  _atom_site_type_symbol
  _atom_site_label
  _atom_site_symmetry_multiplicity
  _atom_site_fract_x
  _atom_site_fract_y
  _atom_site_fract_z
  _atom_site_occupancy
  Sn  Sn1       1.0  0.2898341567098463  0.527726734823312  0.7042939566450062  1.0000
  Sn  Sn2       1.0  0.14417089073036626  0.4796594677870498  0.26677711820251676  1.0000
  Sn  Sn3       1.0  0.5892243344827351  0.8580630495797194  0.3423096804315706  1.0000
  Sn  Sn4       1.0  0.05286806767442408  0.12440205011606607  0.9046448127983304  1.0000
  W   W1        1.0  0.5202453187676733  0.4159045386868138  0.11294243981948701  1.0000
  W   W2        1.0  0.7864315148486586  0.4897299370983943  0.7129203133485098  1.0000
  W   W3        1.0  0.5446072592151292  0.10817550468408695  0.7626966990137837  1.0000
  W   W4        1.0  0.06443855406594268  0.9987562721057863  0.3606615710119932  1.0000
  O   O1        1.0  0.5907025731424458  0.3681491980231815  0.6245482730795011  1.0000
  O   O2        1.0  0.12420225822974819  0.9647056685279985  0.6077760276310327  1.0000
  O   O3        1.0  0.8322572124718852  0.7065708342000455  0.6412779353349899  1.0000
  O   O4        1.0  0.6311327867876689  0.6001835356389942  0.2587629074175609  1.0000
  O   O5        1.0  0.40287927175819993  0.3386684973039041  0.29765720468527945  1.0000
  O   O6        1.0  0.5530996957173839  0.18952856397123322  0.04382397187257246  1.0000
  O   O7        1.0  0.711795875747254  0.5229269957934735  0.9508073654089957  1.0000
  O   O8        1.0  0.08404517398594671  0.20053316525282772  0.2598749728015459  1.0000
  O   O9        1.0  0.48334768324624733  0.9172494565640223  0.9011920820969808  1.0000
  O   O10       1.0  0.9625808240792503  0.38982476883883044  0.8506469163341271  1.0000
  O   O11       1.0  0.2898307956641048  0.5005078794275026  0.02594570288410101  1.0000
  O   O12       1.0  0.1896718032574729  0.8235084263388607  0.241366118472406  1.0000
  O   O13       1.0  0.8344369578054774  0.9981039359762737  0.3259182587942005  1.0000
  O   O14       1.0  0.3403761547768748  0.23301679901398406  0.7818395903994221  1.0000
  O   O15       1.0  0.7737130424401972  0.1004506337481976  0.7462571435131659  1.0000
  O   O16       1.0  0.49889590632954234  0.0156141613613765  0.5428528408294956  1.0000
data_image137
_chemical_formula_structural       Sn4W4O16
_chemical_formula_sum              "Sn4 W4 O16"
_cell_length_a       7.620549
_cell_length_b       7.620549
_cell_length_c       7.620549
_cell_angle_alpha    90.0
_cell_angle_beta     90.0
_cell_angle_gamma    90.0

_space_group_name_H-M_alt    "P 1"
_space_group_IT_number       1

loop_
  _space_group_symop_operation_xyz
  'x, y, z'

loop_
  _atom_site_type_symbol
  _atom_site_label
  _atom_site_symmetry_multiplicity
  _atom_site_fract_x
  _atom_site_fract_y
  _atom_site_fract_z
  _atom_site_occupancy
  Sn  Sn1       1.0  0.3439578813010586  0.5472158296369514  0.7673742253328681  1.0000
  Sn  Sn2       1.0  0.1563511366514383  0.4869524478777729  0.28114802533673455  1.0000
  Sn  Sn3       1.0  0.596657104353698  0.8222367722976698  0.2924562231433514  1.0000
  Sn  Sn4       1.0  0.9775646446088184  0.15176997473680323  0.8406231697247354  1.0000
  W   W1        1.0  0.586147152753735  0.4432711995149182  0.13686157483174058  1.0000
  W   W2        1.0  0.7941758168386669  0.47008249456390006  0.6948826041968901  1.0000
  W   W3        1.0  0.478263790041703  0.10709306279391838  0.7475311011728797  1.0000
  W   W4        1.0  0.05388109716687173  0.9682152643000669  0.40967263856554254  1.0000
  O   O1        1.0  0.5399592066714992  0.3954318767207893  0.6284988305320696  1.0000
  O   O2        1.0  0.08204827104990693  0.9775843772239197  0.6597925243511065  1.0000
  O   O3        1.0  0.7462893160523223  0.6253351800198502  0.4941184287537922  1.0000
  O   O4        1.0  0.7349844419377579  0.6016594360534511  0.20633939024079023  1.0000
  O   O5        1.0  0.451971582386686  0.42429161843529006  0.34002416875169555  1.0000
  O   O6        1.0  0.6130393672747481  0.20115484258640762  0.09849028886789639  1.0000
  O   O7        1.0  0.7021434263933936  0.5342563931736489  0.9101356558963822  1.0000
  O   O8        1.0  0.14562540438089228  0.15800650488999435  0.3083889748811055  1.0000
  O   O9        1.0  0.3823089133154053  0.930536289612014  0.8789428431835753  1.0000
  O   O10       1.0  0.016828523258987652  0.4166968480871187  0.6496569552854782  1.0000
  O   O11       1.0  0.34090581958599336  0.5320498689403116  0.03094501403079448  1.0000
  O   O12       1.0  0.20319583869927782  0.7614070143579057  0.3901608548179708  1.0000
  O   O13       1.0  0.8536025022878319  0.9890332688355159  0.28061777577803254  1.0000
  O   O14       1.0  0.28710097123736683  0.237979498224991  0.7607482506406444  1.0000
  O   O15       1.0  0.7298675346756677  0.20998961174356098  0.7408609531450794  1.0000
  O   O16       1.0  0.524346773301149  0.024126673167456758  0.5298460808064466  1.0000
data_image138
_chemical_formula_structural       Sn4W4O16
_chemical_formula_sum              "Sn4 W4 O16"
_cell_length_a       7.620549
_cell_length_b       7.620549
_cell_length_c       7.620549
_cell_angle_alpha    90.0
_cell_angle_beta     90.0
_cell_angle_gamma    90.0

_space_group_name_H-M_alt    "P 1"
_space_group_IT_number       1

loop_
  _space_group_symop_operation_xyz
  'x, y, z'

loop_
  _atom_site_type_symbol
  _atom_site_label
  _atom_site_symmetry_multiplicity
  _atom_site_fract_x
  _atom_site_fract_y
  _atom_site_fract_z
  _atom_site_occupancy
  Sn  Sn1       1.0  0.3973068022914786  0.6080331452061715  0.7588411613960263  1.0000
  Sn  Sn2       1.0  0.09426391488751307  0.46713331010592307  0.3324201802608798  1.0000
  Sn  Sn3       1.0  0.5975678977371955  0.8715456596703639  0.26581104102259134  1.0000
  Sn  Sn4       1.0  0.05044120589678538  0.2036022696012653  0.8545244858453348  1.0000
  W   W1        1.0  0.5940106112426993  0.41850941613335874  0.14558254944151147  1.0000
  W   W2        1.0  0.7374279077947571  0.4499960467572654  0.6501383356861163  1.0000
  W   W3        1.0  0.48147820349961207  0.0817241799724842  0.7384422868694804  1.0000
  W   W4        1.0  0.05202879398778726  0.9556171271639863  0.4310461158909711  1.0000
  O   O1        1.0  0.4609519885171099  0.39048570233746704  0.6270072471572423  1.0000
  O   O2        1.0  0.012315645497805647  0.0019579861436312507  0.6535019116400864  1.0000
  O   O3        1.0  0.7373828652380044  0.6882927137939746  0.5367722797682648  1.0000
  O   O4        1.0  0.7422171490514792  0.5635658257678302  0.25890059918104974  1.0000
  O   O5        1.0  0.4325288092884685  0.4374422547711748  0.3371935123968978  1.0000
  O   O6        1.0  0.6881817266721058  0.21534454208735454  0.14091672535922084  1.0000
  O   O7        1.0  0.7032829894780837  0.5189490327464131  0.8971573174661602  1.0000
  O   O8        1.0  0.1575309545248223  0.16767743756398312  0.3359896330901329  1.0000
  O   O9        1.0  0.6167783488165031  0.9295944237161913  0.8322345829519135  1.0000
  O   O10       1.0  0.9813422003171661  0.39475330194480956  0.5893817587161485  1.0000
  O   O11       1.0  0.39078422536040125  0.5586512509817436  0.006451810633705241  1.0000
  O   O12       1.0  0.18654016226108294  0.7868975599834734  0.35624278958957173  1.0000
  O   O13       1.0  0.8557631564186258  0.9128790052654021  0.30775888892067366  1.0000
  O   O14       1.0  0.32146777920506137  0.1588569864093799  0.8944754236761336  1.0000
  O   O15       1.0  0.7312852412117253  0.1876395050772984  0.660118091301057  1.0000
  O   O16       1.0  0.37749971804485727  0.0022161449659181542  0.5464783284766108  1.0000
data_image139
_chemical_formula_structural       Sn4W4O16
_chemical_formula_sum              "Sn4 W4 O16"
_cell_length_a       7.620549
_cell_length_b       7.620549
_cell_length_c       7.620549
_cell_angle_alpha    90.0
_cell_angle_beta     90.0
_cell_angle_gamma    90.0

_space_group_name_H-M_alt    "P 1"
_space_group_IT_number       1

loop_
  _space_group_symop_operation_xyz
  'x, y, z'

loop_
  _atom_site_type_symbol
  _atom_site_label
  _atom_site_symmetry_multiplicity
  _atom_site_fract_x
  _atom_site_fract_y
  _atom_site_fract_z
  _atom_site_occupancy
  Sn  Sn1       1.0  0.37587006719904403  0.7108493243460215  0.7701168405596897  1.0000
  Sn  Sn2       1.0  0.09765159744688967  0.4608010748627123  0.35831688412781243  1.0000
  Sn  Sn3       1.0  0.6185176202321064  0.844236149419239  0.28230291549384384  1.0000
  Sn  Sn4       1.0  0.07290544667272603  0.2589526011449772  0.8364930199228313  1.0000
  W   W1        1.0  0.5382099979662777  0.4105005322098423  0.17360813670302838  1.0000
  W   W2        1.0  0.6976032769364556  0.43353114871828113  0.650086633887435  1.0000
  W   W3        1.0  0.5474237445894796  0.05907830753698926  0.7446969251009832  1.0000
  W   W4        1.0  0.06391176033520041  0.9668318375713016  0.41183296774850436  1.0000
  O   O1        1.0  0.4585541913662075  0.41068749541168453  0.6522223033241987  1.0000
  O   O2        1.0  0.05024772019719597  0.032506938892776754  0.6202225573691189  1.0000
  O   O3        1.0  0.6794519558470362  0.6328827916823911  0.5052057574336752  1.0000
  O   O4        1.0  0.7076523291223934  0.5663207803125958  0.19504237861791576  1.0000
  O   O5        1.0  0.35829235845013513  0.4703252466477489  0.32099413294013845  1.0000
  O   O6        1.0  0.5671219267626162  0.1957636101560584  0.09500935360211235  1.0000
  O   O7        1.0  0.8363045439750668  0.4730495918985682  0.8449034043314658  1.0000
  O   O8        1.0  0.2414346240369389  0.058166639574908086  0.26628474969848737  1.0000
  O   O9        1.0  0.5868399002147128  0.8307283603917555  0.8592901403773965  1.0000
  O   O10       1.0  0.026660829115687342  0.3822696344607527  0.578408678976683  1.0000
  O   O11       1.0  0.4605882399415876  0.4873373145333715  0.9547280159058368  1.0000
  O   O12       1.0  0.06327582633761519  0.7199127079906251  0.4076999897283785  1.0000
  O   O13       1.0  0.8575359697289753  0.9245961146694843  0.28187424433448044  1.0000
  O   O14       1.0  0.31826889911855816  0.06680232761042008  0.8299179552722288  1.0000
  O   O15       1.0  0.7241366566478801  0.20185419857321815  0.6025388553716092  1.0000
  O   O16       1.0  0.47744940499244776  0.9548437817262091  0.5320272892716876  1.0000
data_image140
_chemical_formula_structural       Sn4W4O16
_chemical_formula_sum              "Sn4 W4 O16"
_cell_length_a       7.620549
_cell_length_b       7.620549
_cell_length_c       7.620549
_cell_angle_alpha    90.0
_cell_angle_beta     90.0
_cell_angle_gamma    90.0

_space_group_name_H-M_alt    "P 1"
_space_group_IT_number       1

loop_
  _space_group_symop_operation_xyz
  'x, y, z'

loop_
  _atom_site_type_symbol
  _atom_site_label
  _atom_site_symmetry_multiplicity
  _atom_site_fract_x
  _atom_site_fract_y
  _atom_site_fract_z
  _atom_site_occupancy
  Sn  Sn1       1.0  0.2454352290122035  0.7274306652734672  0.7455278596290349  1.0000
  Sn  Sn2       1.0  0.0866104615802985  0.4502629367357684  0.36266827971847126  1.0000
  Sn  Sn3       1.0  0.6566331296085639  0.8544377081970059  0.24134842406848028  1.0000
  Sn  Sn4       1.0  0.0697327684327947  0.31338936472222134  0.8546792453601494  1.0000
  W   W1        1.0  0.534163932687719  0.411836598604402  0.13356893591126504  1.0000
  W   W2        1.0  0.6804714610784237  0.4504225169898358  0.699335692933873  1.0000
  W   W3        1.0  0.5974509774229871  0.03112965513803104  0.731165240840342  1.0000
  W   W4        1.0  0.09698982649781818  0.9317037791414031  0.40217373942466733  1.0000
  O   O1        1.0  0.42886194088623664  0.4223910774961685  0.6606505492027605  1.0000
  O   O2        1.0  0.0793768145087406  0.9750964174178239  0.6169584310302365  1.0000
  O   O3        1.0  0.7108038083718432  0.6306239965037953  0.5516851118427865  1.0000
  O   O4        1.0  0.7282200630114349  0.5585284923062854  0.2209649262822494  1.0000
  O   O5        1.0  0.4294021603490084  0.3704131604844804  0.3435604071984489  1.0000
  O   O6        1.0  0.5533545447149555  0.16962920123371156  0.13039201920444315  1.0000
  O   O7        1.0  0.6728792757098503  0.47941778922227407  0.9330033171557714  1.0000
  O   O8        1.0  0.21205300673410418  0.08108860358304093  0.30189875932493787  1.0000
  O   O9        1.0  0.7088468353889168  0.8692047084227599  0.8607165107783926  1.0000
  O   O10       1.0  0.9889605329449872  0.458622581199857  0.6557650879114008  1.0000
  O   O11       1.0  0.3163066858945856  0.5338356566365747  0.05064446488669706  1.0000
  O   O12       1.0  0.18320961880082542  0.697318198745012  0.4056773205513175  1.0000
  O   O13       1.0  0.8594443774457967  0.9763361468751678  0.36614292436559776  1.0000
  O   O14       1.0  0.3880017798126417  0.06411880705484463  0.8196654927028466  1.0000
  O   O15       1.0  0.7318251241207445  0.1929963942370524  0.6051505172487199  1.0000
  O   O16       1.0  0.4993488394971819  0.9233970592353286  0.5126613948456066  1.0000
data_image141
_chemical_formula_structural       Sn4W4O16
_chemical_formula_sum              "Sn4 W4 O16"
_cell_length_a       7.620549
_cell_length_b       7.620549
_cell_length_c       7.620549
_cell_angle_alpha    90.0
_cell_angle_beta     90.0
_cell_angle_gamma    90.0

_space_group_name_H-M_alt    "P 1"
_space_group_IT_number       1

loop_
  _space_group_symop_operation_xyz
  'x, y, z'

loop_
  _atom_site_type_symbol
  _atom_site_label
  _atom_site_symmetry_multiplicity
  _atom_site_fract_x
  _atom_site_fract_y
  _atom_site_fract_z
  _atom_site_occupancy
  Sn  Sn1       1.0  0.21293993383752283  0.7239853878646666  0.7971197350891582  1.0000
  Sn  Sn2       1.0  0.10546152002092679  0.3714773542338445  0.3879872589133387  1.0000
  Sn  Sn3       1.0  0.6687164837159074  0.8561839227515001  0.17870828420775456  1.0000
  Sn  Sn4       1.0  0.13555209695764303  0.28360055361588654  0.8888312059033395  1.0000
  W   W1        1.0  0.503069161767331  0.4014190854867197  0.1272125402004387  1.0000
  W   W2        1.0  0.6505229115846067  0.49766368751583356  0.6835602824035262  1.0000
  W   W3        1.0  0.5851439742927527  0.022748473309915335  0.6972531250300313  1.0000
  W   W4        1.0  0.08064345388940253  0.9373322565409479  0.4298566000734098  1.0000
  O   O1        1.0  0.48849701448709243  0.6931774248456363  0.6611971083829393  1.0000
  O   O2        1.0  0.01613169658973871  0.08744898836492827  0.5937814808955322  1.0000
  O   O3        1.0  0.8045021433927935  0.660036996981736  0.5998119178617323  1.0000
  O   O4        1.0  0.6334093664011173  0.583459437136107  0.2487415983991017  1.0000
  O   O5        1.0  0.39978086302058974  0.37789640055783996  0.369765785252613  1.0000
  O   O6        1.0  0.6564252561331738  0.24899105719850867  0.21364048822871964  1.0000
  O   O7        1.0  0.704310894630815  0.5171972611992999  0.9242622332928434  1.0000
  O   O8        1.0  0.23113760526884733  0.0887890454354141  0.28572317061000296  1.0000
  O   O9        1.0  0.7732937322557636  0.9442261507905815  0.8231419852428952  1.0000
  O   O10       1.0  0.10288760885698678  0.4845160689780808  0.7198968656266819  1.0000
  O   O11       1.0  0.41486876128588235  0.3353877987476348  0.8933338797877824  1.0000
  O   O12       1.0  0.21692156695184805  0.7449756389732559  0.5328440285587526  1.0000
  O   O13       1.0  0.9556425481943711  0.8809584609702703  0.23153903547023502  1.0000
  O   O14       1.0  0.3839970891026071  0.9516604090257468  0.8368338013905278  1.0000
  O   O15       1.0  0.6628236442430377  0.24698188494035983  0.621750169871131  1.0000
  O   O16       1.0  0.5790337125630838  0.9666339001784572  0.48436418573097373  1.0000
data_image142
_chemical_formula_structural       Sn4W4O16
_chemical_formula_sum              "Sn4 W4 O16"
_cell_length_a       7.620549
_cell_length_b       7.620549
_cell_length_c       7.620549
_cell_angle_alpha    90.0
_cell_angle_beta     90.0
_cell_angle_gamma    90.0

_space_group_name_H-M_alt    "P 1"
_space_group_IT_number       1

loop_
  _space_group_symop_operation_xyz
  'x, y, z'

loop_
  _atom_site_type_symbol
  _atom_site_label
  _atom_site_symmetry_multiplicity
  _atom_site_fract_x
  _atom_site_fract_y
  _atom_site_fract_z
  _atom_site_occupancy
  Sn  Sn1       1.0  0.1945009899615845  0.723881137955807  0.8228392162367948  1.0000
  Sn  Sn2       1.0  0.11970640648385844  0.345563702625584  0.44308923031159164  1.0000
  Sn  Sn3       1.0  0.6714400815888544  0.9034327780930502  0.15613724853835287  1.0000
  Sn  Sn4       1.0  0.1441850126751264  0.17829817483733862  0.9109935903646245  1.0000
  W   W1        1.0  0.5516316949483318  0.414796906097747  0.14803316666601163  1.0000
  W   W2        1.0  0.6170375649412454  0.5296924949152909  0.7205996368699764  1.0000
  W   W3        1.0  0.5858222265317193  0.039753651625691805  0.6487560833453069  1.0000
  W   W4        1.0  0.08217919829811926  0.9425182901285363  0.3968712499740417  1.0000
  O   O1        1.0  0.5159806539366044  0.72652598010773  0.6901573475716063  1.0000
  O   O2        1.0  0.9112022931660962  0.10779478327556329  0.44482818106612876  1.0000
  O   O3        1.0  0.786457579229851  0.5819129489794627  0.56597705367618  1.0000
  O   O4        1.0  0.5339441921727596  0.6591274602978829  0.19675279697025658  1.0000
  O   O5        1.0  0.33827091502474105  0.38164651818444145  0.30203953378443654  1.0000
  O   O6        1.0  0.6758348424325258  0.2106890739844083  0.21297718553864123  1.0000
  O   O7        1.0  0.7311025575246688  0.5038792750008669  0.9572816523903425  1.0000
  O   O8        1.0  0.24340635329863686  0.03443414809177403  0.2482279862219691  1.0000
  O   O9        1.0  0.7814553109730996  0.98078939902883  0.7609784459733141  1.0000
  O   O10       1.0  0.1839964415363259  0.2485816487199977  0.6855405604869149  1.0000
  O   O11       1.0  0.3310041239301368  0.44075741871597807  0.968871393494734  1.0000
  O   O12       1.0  0.2132963534034482  0.7886622580263807  0.5441579371284689  1.0000
  O   O13       1.0  0.9738953019295552  0.7974336088810512  0.2533427283959173  1.0000
  O   O14       1.0  0.3904637346544896  0.9859276639570302  0.8005930355544638  1.0000
  O   O15       1.0  0.5416122623987516  0.26644888153463475  0.6490611499751987  1.0000
  O   O16       1.0  0.618700931941289  0.9318940555334618  0.4390316355895648  1.0000
data_image143
_chemical_formula_structural       Sn4W4O16
_chemical_formula_sum              "Sn4 W4 O16"
_cell_length_a       7.620549
_cell_length_b       7.620549
_cell_length_c       7.620549
_cell_angle_alpha    90.0
_cell_angle_beta     90.0
_cell_angle_gamma    90.0

_space_group_name_H-M_alt    "P 1"
_space_group_IT_number       1

loop_
  _space_group_symop_operation_xyz
  'x, y, z'

loop_
  _atom_site_type_symbol
  _atom_site_label
  _atom_site_symmetry_multiplicity
  _atom_site_fract_x
  _atom_site_fract_y
  _atom_site_fract_z
  _atom_site_occupancy
  Sn  Sn1       1.0  0.21776802825712552  0.7543247376411063  0.8299973176699477  1.0000
  Sn  Sn2       1.0  0.11428697023346479  0.363078889479978  0.3928543911059031  1.0000
  Sn  Sn3       1.0  0.6648538431909713  0.9244863430891056  0.1939584428540805  1.0000
  Sn  Sn4       1.0  0.16468008948312646  0.20262642895655017  0.9394473841907087  1.0000
  W   W1        1.0  0.562257379274585  0.4238451818389466  0.1523101310150058  1.0000
  W   W2        1.0  0.6151997112723674  0.48788770295110234  0.6859916726195033  1.0000
  W   W3        1.0  0.5786872675012342  0.02973545121715679  0.685614889372573  1.0000
  W   W4        1.0  0.06291296306651173  0.922969005118667  0.3829326748424064  1.0000
  O   O1        1.0  0.41323530571612055  0.6276994676173873  0.6898132906558151  1.0000
  O   O2        1.0  0.9119741992222006  0.11234538619665298  0.4223319913077006  1.0000
  O   O3        1.0  0.7708575017312  0.6072614854055165  0.5876950852749976  1.0000
  O   O4        1.0  0.6209131762093844  0.6451424533156827  0.23955809352922164  1.0000
  O   O5        1.0  0.38244248408547654  0.48233130614383557  0.33284432855289026  1.0000
  O   O6        1.0  0.7092734207767795  0.2443579916247614  0.137269063534586  1.0000
  O   O7        1.0  0.6606718043746297  0.494596081823634  0.9319038119330604  1.0000
  O   O8        1.0  0.26414571190612124  0.06596635601969081  0.2449016825597406  1.0000
  O   O9        1.0  0.7253369851122333  0.8905576529833453  0.7974710576686196  1.0000
  O   O10       1.0  0.23314433036872773  0.2470770120964743  0.5932952189645906  1.0000
  O   O11       1.0  0.3542157929870595  0.39679037915603266  0.010352109301012904  1.0000
  O   O12       1.0  0.10897294886445796  0.7968641669102344  0.5684109830581634  1.0000
  O   O13       1.0  0.9107903553543821  0.8888027004690673  0.14875759279082496  1.0000
  O   O14       1.0  0.3879828288793075  0.9768343532159346  0.8207603016172792  1.0000
  O   O15       1.0  0.7156279612950106  0.2384122530826446  0.6787440501634496  1.0000
  O   O16       1.0  0.5680150649128733  0.9443189038854541  0.4406667379697951  1.0000
data_image144
_chemical_formula_structural       Sn4W4O16
_chemical_formula_sum              "Sn4 W4 O16"
_cell_length_a       7.620549
_cell_length_b       7.620549
_cell_length_c       7.620549
_cell_angle_alpha    90.0
_cell_angle_beta     90.0
_cell_angle_gamma    90.0

_space_group_name_H-M_alt    "P 1"
_space_group_IT_number       1

loop_
  _space_group_symop_operation_xyz
  'x, y, z'

loop_
  _atom_site_type_symbol
  _atom_site_label
  _atom_site_symmetry_multiplicity
  _atom_site_fract_x
  _atom_site_fract_y
  _atom_site_fract_z
  _atom_site_occupancy
  Sn  Sn1       1.0  0.20552236380856462  0.7495035345216844  0.8504346687986831  1.0000
  Sn  Sn2       1.0  0.18714543243916903  0.3502609122117704  0.4330711039256047  1.0000
  Sn  Sn3       1.0  0.6069156462366079  0.9523512699173523  0.2034069965152271  1.0000
  Sn  Sn4       1.0  0.18496559510152  0.21331448707765585  0.8697753880402995  1.0000
  W   W1        1.0  0.5519398226421013  0.43562145253194434  0.13979062341878326  1.0000
  W   W2        1.0  0.5774101478029035  0.49422572951033267  0.6437814037577723  1.0000
  W   W3        1.0  0.5988956118959871  0.02629301748036139  0.7061664291829001  1.0000
  W   W4        1.0  0.04213292499400012  0.9175873276635736  0.38278449019602223  1.0000
  O   O1        1.0  0.48226657597157524  0.6899453242728636  0.7194412482232962  1.0000
  O   O2        1.0  0.01713214454353505  0.14040563823120827  0.47309812231515935  1.0000
  O   O3        1.0  0.7936534255539145  0.5302415785264036  0.5671219289587945  1.0000
  O   O4        1.0  0.5569422287822062  0.6702321218460103  0.1862020715456475  1.0000
  O   O5        1.0  0.4923093880617644  0.39597303593337374  0.39178282800360964  1.0000
  O   O6        1.0  0.7386027611617156  0.2691433229297351  0.16610264338927944  1.0000
  O   O7        1.0  0.6395564129747229  0.40226261317747736  0.9208902620590363  1.0000
  O   O8        1.0  0.23436054429120226  0.9524094911476649  0.23605465635342487  1.0000
  O   O9        1.0  0.794434804519181  0.9492576430805086  0.8048227891356202  1.0000
  O   O10       1.0  0.3040311598333671  0.29549771485787135  0.6415849306308149  1.0000
  O   O11       1.0  0.31902729861865253  0.3810903852952169  0.02905875795461721  1.0000
  O   O12       1.0  0.12728918853440185  0.8387966517474914  0.5787673465325849  1.0000
  O   O13       1.0  0.8891934748887506  0.7629116772855224  0.2882998191080103  1.0000
  O   O14       1.0  0.47240324012392104  0.94799435223798  0.9143618383119252  1.0000
  O   O15       1.0  0.6563769070319965  0.24952027646311806  0.6597989683795407  1.0000
  O   O16       1.0  0.6008068048811827  0.9165138169973341  0.49768295483048686  1.0000
data_image145
_chemical_formula_structural       Sn4W4O16
_chemical_formula_sum              "Sn4 W4 O16"
_cell_length_a       7.620549
_cell_length_b       7.620549
_cell_length_c       7.620549
_cell_angle_alpha    90.0
_cell_angle_beta     90.0
_cell_angle_gamma    90.0

_space_group_name_H-M_alt    "P 1"
_space_group_IT_number       1

loop_
  _space_group_symop_operation_xyz
  'x, y, z'

loop_
  _atom_site_type_symbol
  _atom_site_label
  _atom_site_symmetry_multiplicity
  _atom_site_fract_x
  _atom_site_fract_y
  _atom_site_fract_z
  _atom_site_occupancy
  Sn  Sn1       1.0  0.22439511625106623  0.7066600902015436  0.805809964492547  1.0000
  Sn  Sn2       1.0  0.14008992306414147  0.40390419300047137  0.426704349028225  1.0000
  Sn  Sn3       1.0  0.5712472003702029  0.9428956736629458  0.2257730254823808  1.0000
  Sn  Sn4       1.0  0.2162922105910174  0.15167662892118583  0.903220123348113  1.0000
  W   W1        1.0  0.5248407354949683  0.4468668533025461  0.12926097884009694  1.0000
  W   W2        1.0  0.5753746209729574  0.4908010410800739  0.6350780525247802  1.0000
  W   W3        1.0  0.6623621692775077  0.9839188718737303  0.7150034703907433  1.0000
  W   W4        1.0  0.027430989476619594  0.9608890525867708  0.3886449424664656  1.0000
  O   O1        1.0  0.47650548863350206  0.7202106278745627  0.6901572667554148  1.0000
  O   O2        1.0  0.0097654163997362  0.1847591577040977  0.4845522575462007  1.0000
  O   O3        1.0  0.7805319896614754  0.5786288913383567  0.5798103623317383  1.0000
  O   O4        1.0  0.5766051320059762  0.6824557712679384  0.15574245676708517  1.0000
  O   O5        1.0  0.5279032118950108  0.4335190697577904  0.40494074232329696  1.0000
  O   O6        1.0  0.7110920760091419  0.32316141919299496  0.1553092666557225  1.0000
  O   O7        1.0  0.5743793412776432  0.4356964577006174  0.8893685797279454  1.0000
  O   O8        1.0  0.2627820728139642  0.965269355993927  0.31057112756583444  1.0000
  O   O9        1.0  0.8232990597215468  0.8773462487314392  0.8253560725459589  1.0000
  O   O10       1.0  0.19948557963183097  0.3983402455448245  0.6889148154101745  1.0000
  O   O11       1.0  0.38936686276475196  0.23002064219459542  0.1267935735746738  1.0000
  O   O12       1.0  0.10400551317259499  0.8129737252904979  0.5649759818358574  1.0000
  O   O13       1.0  0.8847584438349575  0.8770773942920814  0.19303637843150742  1.0000
  O   O14       1.0  0.45539725703367057  0.07924812118414738  0.8131498731651609  1.0000
  O   O15       1.0  0.7272221266406673  0.2030820798068274  0.7329013130687718  1.0000
  O   O16       1.0  0.6393130982038524  0.9235189600719408  0.46629044913189793  1.0000
data_image146
_chemical_formula_structural       Sn4W4O16
_chemical_formula_sum              "Sn4 W4 O16"
_cell_length_a       7.620549
_cell_length_b       7.620549
_cell_length_c       7.620549
_cell_angle_alpha    90.0
_cell_angle_beta     90.0
_cell_angle_gamma    90.0

_space_group_name_H-M_alt    "P 1"
_space_group_IT_number       1

loop_
  _space_group_symop_operation_xyz
  'x, y, z'

loop_
  _atom_site_type_symbol
  _atom_site_label
  _atom_site_symmetry_multiplicity
  _atom_site_fract_x
  _atom_site_fract_y
  _atom_site_fract_z
  _atom_site_occupancy
  Sn  Sn1       1.0  0.20569377140217687  0.7219115297254108  0.7133025932786058  1.0000
  Sn  Sn2       1.0  0.11237338893455484  0.42731737838140726  0.4512711309426019  1.0000
  Sn  Sn3       1.0  0.6179063347484245  0.9597721358457012  0.21433601500229396  1.0000
  Sn  Sn4       1.0  0.21275244320862183  0.13377541724014053  0.935791063491794  1.0000
  W   W1        1.0  0.5382948101106129  0.44525153265926054  0.1360732603699878  1.0000
  W   W2        1.0  0.5531769553885214  0.47733843962636613  0.6285455151797801  1.0000
  W   W3        1.0  0.6635939262409407  0.9820876379765378  0.7656975714264701  1.0000
  W   W4        1.0  0.04695077306719009  0.9549112733243927  0.3551024440705597  1.0000
  O   O1        1.0  0.501328550308786  0.7087183105012984  0.6014921250210493  1.0000
  O   O2        1.0  0.13158964117620198  0.1354752646250381  0.4745023025463744  1.0000
  O   O3        1.0  0.7754239915153289  0.4290304189965981  0.576965980584919  1.0000
  O   O4        1.0  0.5008716211587627  0.6731565867695637  0.22834266810631001  1.0000
  O   O5        1.0  0.4573727183073124  0.3932971559039429  0.43312542866745257  1.0000
  O   O6        1.0  0.7738542157401147  0.41928152271155483  0.09294194795926256  1.0000
  O   O7        1.0  0.5181126041275981  0.5590108016452537  0.8956435821632113  1.0000
  O   O8        1.0  0.23541277716002498  0.9468790929391809  0.2164133886734586  1.0000
  O   O9        1.0  0.7471058914678648  0.8755836330597924  0.9477607879869941  1.0000
  O   O10       1.0  0.19906676383826205  0.47358088973664336  0.7055549121615987  1.0000
  O   O11       1.0  0.3851180304772967  0.2575787038780113  0.1614252806895008  1.0000
  O   O12       1.0  0.08802463425762586  0.732966407628324  0.40505743759702767  1.0000
  O   O13       1.0  0.8645787567373466  0.021012502803001487  0.20449846752140702  1.0000
  O   O14       1.0  0.3916947462807904  0.9513927780403262  0.829222678869774  1.0000
  O   O15       1.0  0.6126759258506387  0.18488593309434545  0.8307170520981803  1.0000
  O   O16       1.0  0.8552347777344286  0.9520298103511488  0.6238091405260368  1.0000
data_image147
_chemical_formula_structural       Sn4W4O16
_chemical_formula_sum              "Sn4 W4 O16"
_cell_length_a       7.620549
_cell_length_b       7.620549
_cell_length_c       7.620549
_cell_angle_alpha    90.0
_cell_angle_beta     90.0
_cell_angle_gamma    90.0

_space_group_name_H-M_alt    "P 1"
_space_group_IT_number       1

loop_
  _space_group_symop_operation_xyz
  'x, y, z'

loop_
  _atom_site_type_symbol
  _atom_site_label
  _atom_site_symmetry_multiplicity
  _atom_site_fract_x
  _atom_site_fract_y
  _atom_site_fract_z
  _atom_site_occupancy
  Sn  Sn1       1.0  0.19700612921044822  0.7573936074227662  0.7338001104912604  1.0000
  Sn  Sn2       1.0  0.08581221249473114  0.3483416061824899  0.41304332270804744  1.0000
  Sn  Sn3       1.0  0.691974018613411  0.9381994902138845  0.2013118500876351  1.0000
  Sn  Sn4       1.0  0.24960446880361817  0.1911616296846181  0.925113882993066  1.0000
  W   W1        1.0  0.5437072980967079  0.5007582054990896  0.16233953015857486  1.0000
  W   W2        1.0  0.5279432806847592  0.42463231752295627  0.629131492445525  1.0000
  W   W3        1.0  0.6242947935921909  0.9479895401369417  0.7655344784413312  1.0000
  W   W4        1.0  0.05944764887010989  0.9559370593836513  0.3364708526308927  1.0000
  O   O1        1.0  0.5151747877666336  0.7632177675361068  0.6535350944308668  1.0000
  O   O2        1.0  0.2342729566235638  0.09733244312425109  0.4114893135805253  1.0000
  O   O3        1.0  0.7238925846596855  0.4757186039079692  0.5428076030313073  1.0000
  O   O4        1.0  0.5596806577344793  0.715258289329384  0.2925475769237397  1.0000
  O   O5        1.0  0.4220394409469389  0.4491282359618814  0.41221461547542415  1.0000
  O   O6        1.0  0.7434615636358239  0.38345114262747776  0.16197213932096804  1.0000
  O   O7        1.0  0.5733114890171425  0.5094114783274288  0.88034924083897  1.0000
  O   O8        1.0  0.17737730986574163  0.8846993899077783  0.14155767098383737  1.0000
  O   O9        1.0  0.7730857858267755  0.8361199134564219  0.9583673278360842  1.0000
  O   O10       1.0  0.23615211784697585  0.5060469160183557  0.7153237828536335  1.0000
  O   O11       1.0  0.3191394094172525  0.3465922647800475  0.1249081480456544  1.0000
  O   O12       1.0  0.0515897432559258  0.751229733894566  0.4906926028446636  1.0000
  O   O13       1.0  0.8993462716423025  0.13646267850703442  0.32073222114614547  1.0000
  O   O14       1.0  0.49073836739626053  0.05169063423622422  0.03098482224622523  1.0000
  O   O15       1.0  0.47896832981040405  0.16069078483239016  0.6469414613874366  1.0000
  O   O16       1.0  0.82080015872554  0.041869313284208065  0.6733110068846689  1.0000
data_image148
_chemical_formula_structural       Sn4W4O16
_chemical_formula_sum              "Sn4 W4 O16"
_cell_length_a       7.620549
_cell_length_b       7.620549
_cell_length_c       7.620549
_cell_angle_alpha    90.0
_cell_angle_beta     90.0
_cell_angle_gamma    90.0

_space_group_name_H-M_alt    "P 1"
_space_group_IT_number       1

loop_
  _space_group_symop_operation_xyz
  'x, y, z'

loop_
  _atom_site_type_symbol
  _atom_site_label
  _atom_site_symmetry_multiplicity
  _atom_site_fract_x
  _atom_site_fract_y
  _atom_site_fract_z
  _atom_site_occupancy
  Sn  Sn1       1.0  0.15562660290480687  0.7475911876687957  0.7225240496907314  1.0000
  Sn  Sn2       1.0  0.06696518818242714  0.38450908020007923  0.4590806393857662  1.0000
  Sn  Sn3       1.0  0.6786365217269682  0.9653115609681597  0.14448865887047768  1.0000
  Sn  Sn4       1.0  0.25451275421684916  0.2801799841427526  0.9427971818923109  1.0000
  W   W1        1.0  0.5120967405072672  0.48612967897177517  0.16602894301178667  1.0000
  W   W2        1.0  0.5555857703926396  0.35957572231008705  0.6831109564597131  1.0000
  W   W3        1.0  0.6435327440839839  0.9685361829424544  0.7566587253142871  1.0000
  W   W4        1.0  0.09181303844081179  0.9399158337104871  0.3034790810951417  1.0000
  O   O1        1.0  0.45880421685433914  0.8474506475716457  0.7402284805136663  1.0000
  O   O2        1.0  0.22816806580972082  0.1063222922798981  0.2931839811808945  1.0000
  O   O3        1.0  0.763478251428622  0.23628033888005853  0.7207208655318138  1.0000
  O   O4        1.0  0.549324769310836  0.7275111092548956  0.1986048453169532  1.0000
  O   O5        1.0  0.529386376212274  0.4967357145680828  0.47706202366792483  1.0000
  O   O6        1.0  0.7374684247407186  0.39416621923048345  0.2142670308191938  1.0000
  O   O7        1.0  0.5179334866450325  0.5119246894420173  0.8755617145668686  1.0000
  O   O8        1.0  0.07612105527888044  0.8372325374591709  0.0896478262734415  1.0000
  O   O9        1.0  0.8129841767553153  0.8534201341013534  0.9395703381051865  1.0000
  O   O10       1.0  0.1775742002345393  0.4054945458827036  0.7128722234311301  1.0000
  O   O11       1.0  0.27274748972728097  0.47792141819466816  0.14509613398451243  1.0000
  O   O12       1.0  0.193075297022415  0.7571524456910537  0.4294954250481917  1.0000
  O   O13       1.0  0.8705009693159952  0.08195026398401684  0.27205641727775015  1.0000
  O   O14       1.0  0.5725611914337749  0.11928099213819715  0.9653152891691229  1.0000
  O   O15       1.0  0.4220289743425744  0.17118332180678442  0.6525749928110247  1.0000
  O   O16       1.0  0.7763095058066084  0.904832783387386  0.5771751478442239  1.0000
data_image149
_chemical_formula_structural       Sn4W4O16
_chemical_formula_sum              "Sn4 W4 O16"
_cell_length_a       7.620549
_cell_length_b       7.620549
_cell_length_c       7.620549
_cell_angle_alpha    90.0
_cell_angle_beta     90.0
_cell_angle_gamma    90.0

_space_group_name_H-M_alt    "P 1"
_space_group_IT_number       1

loop_
  _space_group_symop_operation_xyz
  'x, y, z'

loop_
  _atom_site_type_symbol
  _atom_site_label
  _atom_site_symmetry_multiplicity
  _atom_site_fract_x
  _atom_site_fract_y
  _atom_site_fract_z
  _atom_site_occupancy
  Sn  Sn1       1.0  0.1877815857812166  0.7468114899900165  0.7330238771991467  1.0000
  Sn  Sn2       1.0  0.02309491412693565  0.42542499981616955  0.4749146428227815  1.0000
  Sn  Sn3       1.0  0.5982256837684103  0.04106929152159422  0.16235154033778443  1.0000
  Sn  Sn4       1.0  0.17523102295121967  0.3188759958683472  0.9741565868310538  1.0000
  W   W1        1.0  0.5290821384781057  0.5078472662285176  0.21147034191526823  1.0000
  W   W2        1.0  0.5894328530556395  0.3333517245035911  0.7072803072136525  1.0000
  W   W3        1.0  0.6260107712852857  0.9390762316612996  0.6901584195119366  1.0000
  W   W4        1.0  0.15449467470316436  0.9064256720023778  0.27776396474557047  1.0000
  O   O1        1.0  0.4635392573808006  0.7667628864149747  0.6987385181967982  1.0000
  O   O2        1.0  0.25937787819538777  0.12040093729330185  0.28332772589033617  1.0000
  O   O3        1.0  0.8165593555941155  0.22500919750676052  0.6380427549336872  1.0000
  O   O4        1.0  0.5176235403681013  0.7526624536647992  0.19018560214170438  1.0000
  O   O5        1.0  0.5443367503207976  0.4455907255479264  0.47826343739835636  1.0000
  O   O6        1.0  0.7288727435840401  0.4007436643375536  0.17239765108274022  1.0000
  O   O7        1.0  0.5643196979021248  0.493989900459071  0.9251179892180078  1.0000
  O   O8        1.0  0.19010709851323668  0.8102648502021607  0.07107584837612711  1.0000
  O   O9        1.0  0.7169529462592021  0.9007170230673662  0.9023240382626038  1.0000
  O   O10       1.0  0.19117275528220654  0.3463009814101664  0.6767384073234816  1.0000
  O   O11       1.0  0.3209774831519849  0.4391157290565973  0.23880521263966137  1.0000
  O   O12       1.0  0.11535069935103226  0.7133025296786211  0.4166552026611296  1.0000
  O   O13       1.0  0.9300401850566936  0.9903435138562839  0.31508938345622817  1.0000
  O   O14       1.0  0.4777625141216758  0.1691329454524603  0.880689924350489  1.0000
  O   O15       1.0  0.49684669421175215  0.13595393429271352  0.5633292426937616  1.0000
  O   O16       1.0  0.7884190300602685  0.8035014411116811  0.5658608849214609  1.0000
data_image150
_chemical_formula_structural       Sn4W4O16
_chemical_formula_sum              "Sn4 W4 O16"
_cell_length_a       7.620549
_cell_length_b       7.620549
_cell_length_c       7.620549
_cell_angle_alpha    90.0
_cell_angle_beta     90.0
_cell_angle_gamma    90.0

_space_group_name_H-M_alt    "P 1"
_space_group_IT_number       1

loop_
  _space_group_symop_operation_xyz
  'x, y, z'

loop_
  _atom_site_type_symbol
  _atom_site_label
  _atom_site_symmetry_multiplicity
  _atom_site_fract_x
  _atom_site_fract_y
  _atom_site_fract_z
  _atom_site_occupancy
  Sn  Sn1       1.0  0.2013973863424432  0.683725790317591  0.7616952151116765  1.0000
  Sn  Sn2       1.0  0.02961804945732216  0.43168241800254536  0.48543957970104284  1.0000
  Sn  Sn3       1.0  0.5733633922766271  0.11709677667403251  0.14156877337504253  1.0000
  Sn  Sn4       1.0  0.1454211023893992  0.3301548146864942  0.9522335340674394  1.0000
  W   W1        1.0  0.5889075714361969  0.49639053256594157  0.24194879408438047  1.0000
  W   W2        1.0  0.5549478792318858  0.3689855352740355  0.710130384792942  1.0000
  W   W3        1.0  0.6026018001344442  0.9025844263777061  0.683959201423828  1.0000
  W   W4        1.0  0.15126886693481967  0.8942948986858319  0.24896385617881736  1.0000
  O   O1        1.0  0.38013820277944116  0.8040018240055077  0.6402718215909151  1.0000
  O   O2        1.0  0.3698239926646563  0.004953090648402494  0.2656666041905178  1.0000
  O   O3        1.0  0.7735554459526228  0.397315396045861  0.7911183623574368  1.0000
  O   O4        1.0  0.5430664656379887  0.7333925943278634  0.2399626484438449  1.0000
  O   O5        1.0  0.5764156076360532  0.40960060979851015  0.46272201745175606  1.0000
  O   O6        1.0  0.7933990701988833  0.4123103107451094  0.2240940602138501  1.0000
  O   O7        1.0  0.5002427203456168  0.5440853615282863  0.8546440791411521  1.0000
  O   O8        1.0  0.20255543881390603  0.7844658418412451  0.036347455878374124  1.0000
  O   O9        1.0  0.6462190407201459  0.9076978894280143  0.9407835476497995  1.0000
  O   O10       1.0  0.25474699894489444  0.40992954599694936  0.6658956298335547  1.0000
  O   O11       1.0  0.31051675324912315  0.32688186140786535  0.18361563599968403  1.0000
  O   O12       1.0  0.14228462342131598  0.6708217795551763  0.3614489009896051  1.0000
  O   O13       1.0  0.05045228732064899  0.07601949047041678  0.36946612620135616  1.0000
  O   O14       1.0  0.4108677145074637  0.18008854835981195  0.8213298234450039  1.0000
  O   O15       1.0  0.6300386041945707  0.10167005231592471  0.5710525534255547  1.0000
  O   O16       1.0  0.7968323541108009  0.8038254574904402  0.6345452521619449  1.0000
data_image151
_chemical_formula_structural       Sn4W4O16
_chemical_formula_sum              "Sn4 W4 O16"
_cell_length_a       7.620549
_cell_length_b       7.620549
_cell_length_c       7.620549
_cell_angle_alpha    90.0
_cell_angle_beta     90.0
_cell_angle_gamma    90.0

_space_group_name_H-M_alt    "P 1"
_space_group_IT_number       1

loop_
  _space_group_symop_operation_xyz
  'x, y, z'

loop_
  _atom_site_type_symbol
  _atom_site_label
  _atom_site_symmetry_multiplicity
  _atom_site_fract_x
  _atom_site_fract_y
  _atom_site_fract_z
  _atom_site_occupancy
  Sn  Sn1       1.0  0.21151678674915156  0.6753299489098046  0.7831399256938834  1.0000
  Sn  Sn2       1.0  0.0406959745780211  0.40619893511193056  0.44497791290004646  1.0000
  Sn  Sn3       1.0  0.5894525910018332  0.13425238083993118  0.1339935711947957  1.0000
  Sn  Sn4       1.0  0.144361568711302  0.3477834478252436  0.9790721441079437  1.0000
  W   W1        1.0  0.582649806801222  0.519696047267729  0.24612041285888034  1.0000
  W   W2        1.0  0.5351919304488231  0.3551354867363809  0.7104877250125091  1.0000
  W   W3        1.0  0.6153093925161309  0.8900788016902776  0.7004626263876446  1.0000
  W   W4        1.0  0.16353021074186125  0.8644694680246254  0.24836314113638822  1.0000
  O   O1        1.0  0.35900905903783403  0.8499286484722623  0.6652807011176549  1.0000
  O   O2        1.0  0.32829878789070643  0.0435646771176447  0.24676380462496628  1.0000
  O   O3        1.0  0.7521312237208753  0.34701694755846385  0.7800913217495431  1.0000
  O   O4        1.0  0.5561904099852633  0.7452084851941887  0.20408291225154335  1.0000
  O   O5        1.0  0.5861003116073402  0.42170570273211744  0.46555685790829177  1.0000
  O   O6        1.0  0.7976904125873452  0.4449812948464468  0.12552636117300275  1.0000
  O   O7        1.0  0.4954647043569048  0.5899623981658999  0.8066530410213149  1.0000
  O   O8        1.0  0.08391767571439919  0.8806533451443198  0.0338341886781846  1.0000
  O   O9        1.0  0.6646322465484503  0.9196086351714206  0.9429956580548478  1.0000
  O   O10       1.0  0.20465453703719388  0.43441559056068196  0.6648417458221906  1.0000
  O   O11       1.0  0.35119722684208016  0.49756131795605335  0.1845431901769767  1.0000
  O   O12       1.0  0.15143210747253066  0.6581503152119964  0.39754967462179114  1.0000
  O   O13       1.0  0.024676510936152418  0.06563026296829277  0.30548631706510204  1.0000
  O   O14       1.0  0.4014653917069516  0.21698499347171235  0.8653180534880361  1.0000
  O   O15       1.0  0.6150281842871076  0.10023714073917497  0.56468831024966  1.0000
  O   O16       1.0  0.7359020106371846  0.7230270848861187  0.5791331270881364  1.0000
data_image152
_chemical_formula_structural       Sn4W4O16
_chemical_formula_sum              "Sn4 W4 O16"
_cell_length_a       7.620549
_cell_length_b       7.620549
_cell_length_c       7.620549
_cell_angle_alpha    90.0
_cell_angle_beta     90.0
_cell_angle_gamma    90.0

_space_group_name_H-M_alt    "P 1"
_space_group_IT_number       1

loop_
  _space_group_symop_operation_xyz
  'x, y, z'

loop_
  _atom_site_type_symbol
  _atom_site_label
  _atom_site_symmetry_multiplicity
  _atom_site_fract_x
  _atom_site_fract_y
  _atom_site_fract_z
  _atom_site_occupancy
  Sn  Sn1       1.0  0.23482768102816456  0.6939628868975177  0.7729745026431555  1.0000
  Sn  Sn2       1.0  0.10103820640809436  0.38806449720019254  0.49633947029016734  1.0000
  Sn  Sn3       1.0  0.6192243900249113  0.07414332736830187  0.13174112407091446  1.0000
  Sn  Sn4       1.0  0.16006773237865318  0.3071250228448005  0.02539881153612522  1.0000
  W   W1        1.0  0.5551132875534717  0.5728339596291041  0.24253377725630476  1.0000
  W   W2        1.0  0.5672936333719778  0.3695219148286447  0.7099177005663097  1.0000
  W   W3        1.0  0.571260827486544  0.8517685025146103  0.6404958892732615  1.0000
  W   W4        1.0  0.12935006157560003  0.8863820129336718  0.26950258964431245  1.0000
  O   O1        1.0  0.3118456798496122  0.9215017705422291  0.6930100987496665  1.0000
  O   O2        1.0  0.2748160516791205  0.037023752723812905  0.17231530425748276  1.0000
  O   O3        1.0  0.7971887563466697  0.3467545726537183  0.7112805951091953  1.0000
  O   O4        1.0  0.5612630654709683  0.7884663565909364  0.13488336002668955  1.0000
  O   O5        1.0  0.5205654127060554  0.49043446641999533  0.46757082962897417  1.0000
  O   O6        1.0  0.7619762476678702  0.4393604668496475  0.18315667191696566  1.0000
  O   O7        1.0  0.4981579871444868  0.5955991380936754  0.7882110431583826  1.0000
  O   O8        1.0  0.10361233093004484  0.7270565478605294  0.1064104430088872  1.0000
  O   O9        1.0  0.7384129124972446  0.909664899392092  0.8155526537551453  1.0000
  O   O10       1.0  0.22214393774171437  0.42730021407609653  0.7365447161104299  1.0000
  O   O11       1.0  0.3492506588284741  0.49716722899648763  0.14672306036645924  1.0000
  O   O12       1.0  0.16684116175458952  0.7185923119718531  0.4468033017552358  1.0000
  O   O13       1.0  0.9424921680614579  0.033729262050929076  0.2536886045318393  1.0000
  O   O14       1.0  0.5111877044619868  0.25991767548760464  0.9488987810152587  1.0000
  O   O15       1.0  0.5326981522166264  0.15484894805034047  0.5955318938875149  1.0000
  O   O16       1.0  0.7202880491079714  0.7473518840721047  0.47848209760815347  1.0000
data_image153
_chemical_formula_structural       Sn4W4O16
_chemical_formula_sum              "Sn4 W4 O16"
_cell_length_a       7.620549
_cell_length_b       7.620549
_cell_length_c       7.620549
_cell_angle_alpha    90.0
_cell_angle_beta     90.0
_cell_angle_gamma    90.0

_space_group_name_H-M_alt    "P 1"
_space_group_IT_number       1

loop_
  _space_group_symop_operation_xyz
  'x, y, z'

loop_
  _atom_site_type_symbol
  _atom_site_label
  _atom_site_symmetry_multiplicity
  _atom_site_fract_x
  _atom_site_fract_y
  _atom_site_fract_z
  _atom_site_occupancy
  Sn  Sn1       1.0  0.21502678453935603  0.7202921858433381  0.8061430994966502  1.0000
  Sn  Sn2       1.0  0.1383419013293843  0.38570080187240985  0.47792963252017157  1.0000
  Sn  Sn3       1.0  0.6031022663480794  0.055988177111732096  0.15689766470898034  1.0000
  Sn  Sn4       1.0  0.2091640000939986  0.2610384542019915  0.05340200137130946  1.0000
  W   W1        1.0  0.5263519040296418  0.5748709162097222  0.2741204266701081  1.0000
  W   W2        1.0  0.5610294395986072  0.392793821676363  0.6854894058759805  1.0000
  W   W3        1.0  0.6163623904376234  0.9081006142905299  0.6379543117755259  1.0000
  W   W4        1.0  0.08967769364562317  0.863400130450078  0.25484035068668537  1.0000
  O   O1        1.0  0.42959181004327956  0.9452401798155663  0.7776784760832446  1.0000
  O   O2        1.0  0.272570704244958  0.04574002291574659  0.21745077285169323  1.0000
  O   O3        1.0  0.7859955293860402  0.36761669916365813  0.6285139562948093  1.0000
  O   O4        1.0  0.46560493029531114  0.7316654916388929  0.08768353503472098  1.0000
  O   O5        1.0  0.4362123445667016  0.3773951194881215  0.45651395595165994  1.0000
  O   O6        1.0  0.6874483993947922  0.43925797303076364  0.21727234316688956  1.0000
  O   O7        1.0  0.5216520324558869  0.6530687418985097  0.7253060805945044  1.0000
  O   O8        1.0  0.0495420187089426  0.7408071009724154  0.03780723728688363  1.0000
  O   O9        1.0  0.8155481852003522  0.9097846605212359  0.7391535621485276  1.0000
  O   O10       1.0  0.25556275520633387  0.402541232109458  0.7454345197078133  1.0000
  O   O11       1.0  0.4067715226775934  0.37264654212669274  0.1441554100799338  1.0000
  O   O12       1.0  0.1965901188233632  0.7263776014728537  0.39937432370894116  1.0000
  O   O13       1.0  0.8747469863068429  0.9009923290671834  0.32096231567318895  1.0000
  O   O14       1.0  0.5805486175705903  0.27707700989296563  0.8870288901790986  1.0000
  O   O15       1.0  0.5897302077102888  0.09379691518508686  0.4933869354822074  1.0000
  O   O16       1.0  0.6041182094983574  0.7514661867172301  0.42382305871674103  1.0000
data_image154
_chemical_formula_structural       Sn4W4O16
_chemical_formula_sum              "Sn4 W4 O16"
_cell_length_a       7.620549
_cell_length_b       7.620549
_cell_length_c       7.620549
_cell_angle_alpha    90.0
_cell_angle_beta     90.0
_cell_angle_gamma    90.0

_space_group_name_H-M_alt    "P 1"
_space_group_IT_number       1

loop_
  _space_group_symop_operation_xyz
  'x, y, z'

loop_
  _atom_site_type_symbol
  _atom_site_label
  _atom_site_symmetry_multiplicity
  _atom_site_fract_x
  _atom_site_fract_y
  _atom_site_fract_z
  _atom_site_occupancy
  Sn  Sn1       1.0  0.19030604980055849  0.7257214361176892  0.7427989691765905  1.0000
  Sn  Sn2       1.0  0.11366407749066343  0.38832631431477843  0.4803662686772074  1.0000
  Sn  Sn3       1.0  0.5892757013226643  0.0808414480864692  0.21173178536711293  1.0000
  Sn  Sn4       1.0  0.18256532955393795  0.25878648138243165  0.9857405448432264  1.0000
  W   W1        1.0  0.5278514070092218  0.5537926917729704  0.28251057069947155  1.0000
  W   W2        1.0  0.6075194401950241  0.4476279011446402  0.6965163248646348  1.0000
  W   W3        1.0  0.6174808183638958  0.910555813853444  0.6345298067996183  1.0000
  W   W4        1.0  0.09692232766108466  0.7896757807615532  0.25513462020422656  1.0000
  O   O1        1.0  0.4703481457595544  0.010706960214041494  0.8017812710890511  1.0000
  O   O2        1.0  0.2496106986815508  0.9723791358645952  0.25526866782509794  1.0000
  O   O3        1.0  0.8117753413425539  0.40004620973713617  0.5970899403076798  1.0000
  O   O4        1.0  0.42938639687329566  0.7281349191540147  0.15934156720612977  1.0000
  O   O5        1.0  0.4387710704264834  0.4250967897374122  0.5342277152767801  1.0000
  O   O6        1.0  0.7549647200884966  0.5204380344313689  0.2611234616045137  1.0000
  O   O7        1.0  0.6344370720599015  0.6714363654472875  0.7908356958363585  1.0000
  O   O8        1.0  0.1353185964033093  0.6428022902393747  0.034163335442583244  1.0000
  O   O9        1.0  0.8262461501066436  0.9583318664018837  0.7519551942291725  1.0000
  O   O10       1.0  0.14674967645184392  0.388131284400353  0.7590018011577762  1.0000
  O   O11       1.0  0.40941729610178046  0.3663329437963173  0.16355540867282176  1.0000
  O   O12       1.0  0.0962353378882923  0.7302374652367565  0.5058031835141774  1.0000
  O   O13       1.0  0.9017836895475458  0.9244453610192264  0.23802883715625736  1.0000
  O   O14       1.0  0.5672206339686121  0.31072260986122147  0.8887737834105733  1.0000
  O   O15       1.0  0.6158929394170076  0.1258423813187274  0.48333220302953406  1.0000
  O   O16       1.0  0.4966024983352184  0.768339839073599  0.4500553491684613  1.0000
data_image155
_chemical_formula_structural       Sn4W4O16
_chemical_formula_sum              "Sn4 W4 O16"
_cell_length_a       7.620549
_cell_length_b       7.620549
_cell_length_c       7.620549
_cell_angle_alpha    90.0
_cell_angle_beta     90.0
_cell_angle_gamma    90.0

_space_group_name_H-M_alt    "P 1"
_space_group_IT_number       1

loop_
  _space_group_symop_operation_xyz
  'x, y, z'

loop_
  _atom_site_type_symbol
  _atom_site_label
  _atom_site_symmetry_multiplicity
  _atom_site_fract_x
  _atom_site_fract_y
  _atom_site_fract_z
  _atom_site_occupancy
  Sn  Sn1       1.0  0.16271401473536654  0.7752594866440785  0.7090283916915645  1.0000
  Sn  Sn2       1.0  0.04463659499341621  0.32582045565174  0.5058518450393472  1.0000
  Sn  Sn3       1.0  0.571061502388985  0.06335428802780974  0.2256917854670401  1.0000
  Sn  Sn4       1.0  0.20602882651954313  0.24490843712232335  0.9738510455985524  1.0000
  W   W1        1.0  0.5247697529958626  0.5662513288352887  0.2790972650466706  1.0000
  W   W2        1.0  0.621412666240245  0.46469031189415017  0.6924369493649185  1.0000
  W   W3        1.0  0.6585561570904256  0.9320006762892682  0.6613409839463281  1.0000
  W   W4        1.0  0.07878797713895325  0.7728960181555155  0.23151157637242126  1.0000
  O   O1        1.0  0.4586494919250158  0.9449313456002391  0.8217942346900962  1.0000
  O   O2        1.0  0.2249823047044277  0.9596805904231015  0.21139030080041032  1.0000
  O   O3        1.0  0.8670975119132045  0.4918499038510355  0.7273466163261358  1.0000
  O   O4        1.0  0.4906801215265252  0.745677557841737  0.11504808572455798  1.0000
  O   O5        1.0  0.43685117916183447  0.5126513058339339  0.5065632460274047  1.0000
  O   O6        1.0  0.7491296503339455  0.4850743068798159  0.27723018951632605  1.0000
  O   O7        1.0  0.6001056130111909  0.6934829754883788  0.7715955637508705  1.0000
  O   O8        1.0  0.09798082841079238  0.5826894078593274  0.08740513398294336  1.0000
  O   O9        1.0  0.8787101905004584  0.9187427992873042  0.754475629259087  1.0000
  O   O10       1.0  0.18346090699710793  0.29017725196539434  0.7082724666210024  1.0000
  O   O11       1.0  0.4477478990003289  0.3525837954596134  0.21812495332853557  1.0000
  O   O12       1.0  0.1365730020094693  0.698783769418292  0.4493614882689057  1.0000
  O   O13       1.0  0.879654253466367  0.9066689339461128  0.2377304079716425  1.0000
  O   O14       1.0  0.5280559526212438  0.34734902322898054  0.8589358476641835  1.0000
  O   O15       1.0  0.6661202570339213  0.15470733943487155  0.545809277243247  1.0000
  O   O16       1.0  0.6114255300968874  0.7978276888551694  0.48338355237701514  1.0000
data_image156
_chemical_formula_structural       Sn4W4O16
_chemical_formula_sum              "Sn4 W4 O16"
_cell_length_a       7.620549
_cell_length_b       7.620549
_cell_length_c       7.620549
_cell_angle_alpha    90.0
_cell_angle_beta     90.0
_cell_angle_gamma    90.0

_space_group_name_H-M_alt    "P 1"
_space_group_IT_number       1

loop_
  _space_group_symop_operation_xyz
  'x, y, z'

loop_
  _atom_site_type_symbol
  _atom_site_label
  _atom_site_symmetry_multiplicity
  _atom_site_fract_x
  _atom_site_fract_y
  _atom_site_fract_z
  _atom_site_occupancy
  Sn  Sn1       1.0  0.13041751951630143  0.7608478146446335  0.7499279980806427  1.0000
  Sn  Sn2       1.0  0.045843152009939825  0.31939795170189483  0.5176699910748497  1.0000
  Sn  Sn3       1.0  0.5272531684261541  0.010963557272591906  0.16893098727324388  1.0000
  Sn  Sn4       1.0  0.23241646851505243  0.2673678813430443  0.004128942918270706  1.0000
  W   W1        1.0  0.546358070459482  0.5569323124567134  0.28798337391205026  1.0000
  W   W2        1.0  0.6173956465992454  0.441237817592313  0.7099567343379943  1.0000
  W   W3        1.0  0.6548591782367786  0.9272565064364515  0.6549178333072114  1.0000
  W   W4        1.0  0.10160165821468858  0.8156751842021162  0.2161805244074366  1.0000
  O   O1        1.0  0.4108908839876721  0.9802332940423726  0.735738526363638  1.0000
  O   O2        1.0  0.24297484295249888  0.989858444555307  0.1391845923329229  1.0000
  O   O3        1.0  0.8342925201495434  0.5000022502300367  0.6184733291185682  1.0000
  O   O4        1.0  0.3615748199734438  0.7412272464834317  0.2499328098091465  1.0000
  O   O5        1.0  0.486438710720152  0.47759153310833385  0.527223673256879  1.0000
  O   O6        1.0  0.7424204114029951  0.5466826445731824  0.14555686625462352  1.0000
  O   O7        1.0  0.6580767893802791  0.6866932741821888  0.7667259625256893  1.0000
  O   O8        1.0  0.0726472385900643  0.7225749308962675  0.004082248638444047  1.0000
  O   O9        1.0  0.9046037780498417  0.9521226866781373  0.7327932839477778  1.0000
  O   O10       1.0  0.1551020031603099  0.3736869618138845  0.7855387564303775  1.0000
  O   O11       1.0  0.421738466863543  0.31537087372053274  0.2319225956906862  1.0000
  O   O12       1.0  0.07145655797376449  0.670123794582185  0.412481032823281  1.0000
  O   O13       1.0  0.8920553318824026  0.9188014824491424  0.2017702370023033  1.0000
  O   O14       1.0  0.549538020337563  0.30655940295523465  0.9102102957717326  1.0000
  O   O15       1.0  0.7461534208764313  0.19099064478600722  0.6065068042004048  1.0000
  O   O16       1.0  0.632194063499052  0.818935259549339  0.4375029780018722  1.0000
data_image157
_chemical_formula_structural       Sn4W4O16
_chemical_formula_sum              "Sn4 W4 O16"
_cell_length_a       7.620549
_cell_length_b       7.620549
_cell_length_c       7.620549
_cell_angle_alpha    90.0
_cell_angle_beta     90.0
_cell_angle_gamma    90.0

_space_group_name_H-M_alt    "P 1"
_space_group_IT_number       1

loop_
  _space_group_symop_operation_xyz
  'x, y, z'

loop_
  _atom_site_type_symbol
  _atom_site_label
  _atom_site_symmetry_multiplicity
  _atom_site_fract_x
  _atom_site_fract_y
  _atom_site_fract_z
  _atom_site_occupancy
  Sn  Sn1       1.0  0.11570933551893038  0.7284819834993206  0.7893366856009438  1.0000
  Sn  Sn2       1.0  0.09864227741868103  0.317060751941426  0.548874580962018  1.0000
  Sn  Sn3       1.0  0.5572280837953704  0.03519784129613379  0.14824720105510392  1.0000
  Sn  Sn4       1.0  0.2370455559306323  0.3208755159302923  0.9905115017479875  1.0000
  W   W1        1.0  0.5149106146500126  0.5162129176172909  0.24741927284257975  1.0000
  W   W2        1.0  0.6442818892423863  0.42524062393531814  0.7147747150527558  1.0000
  W   W3        1.0  0.622681526204495  0.8902760599060491  0.6738272242506594  1.0000
  W   W4        1.0  0.08108912191357387  0.8667767067646848  0.2049294058708824  1.0000
  O   O1        1.0  0.4105289673309674  0.9100259316671899  0.7973251911323209  1.0000
  O   O2        1.0  0.3066304984496322  0.9718413806019961  0.2134780838128838  1.0000
  O   O3        1.0  0.900694875801315  0.4383038049802098  0.6571436414059312  1.0000
  O   O4        1.0  0.35236688764411184  0.6184908956974124  0.11737539712548095  1.0000
  O   O5        1.0  0.555875447130483  0.483992768054091  0.5039590489747621  1.0000
  O   O6        1.0  0.7052752488890088  0.6284696577261557  0.24878229876033994  1.0000
  O   O7        1.0  0.6822376254172011  0.6826605583673375  0.7653697951917646  1.0000
  O   O8        1.0  0.9831670508218988  0.7537891712332608  0.9894376289572621  1.0000
  O   O9        1.0  0.863291851828487  0.9250955024768294  0.7343206265398028  1.0000
  O   O10       1.0  0.2149388229925596  0.46973786107710463  0.7591910993780683  1.0000
  O   O11       1.0  0.537637126975454  0.26722120095385954  0.19561123587416449  1.0000
  O   O12       1.0  0.11624705300877314  0.7501360627062674  0.3939861587555644  1.0000
  O   O13       1.0  0.8726323981705787  0.9945436115329269  0.17736731243078704  1.0000
  O   O14       1.0  0.5009778939186934  0.37575280269790784  0.9272984549497304  1.0000
  O   O15       1.0  0.6932436526800365  0.16907444957279927  0.6496195872118998  1.0000
  O   O16       1.0  0.5907824140137419  0.9113374780155492  0.44742052499197654  1.0000
data_image158
_chemical_formula_structural       Sn4W4O16
_chemical_formula_sum              "Sn4 W4 O16"
_cell_length_a       7.620549
_cell_length_b       7.620549
_cell_length_c       7.620549
_cell_angle_alpha    90.0
_cell_angle_beta     90.0
_cell_angle_gamma    90.0

_space_group_name_H-M_alt    "P 1"
_space_group_IT_number       1

loop_
  _space_group_symop_operation_xyz
  'x, y, z'

loop_
  _atom_site_type_symbol
  _atom_site_label
  _atom_site_symmetry_multiplicity
  _atom_site_fract_x
  _atom_site_fract_y
  _atom_site_fract_z
  _atom_site_occupancy
  Sn  Sn1       1.0  0.06956615334884331  0.7415525704035473  0.7420288896771733  1.0000
  Sn  Sn2       1.0  0.15107258388520872  0.33164308152223043  0.5560215318601077  1.0000
  Sn  Sn3       1.0  0.6061167202262916  0.9621940654929131  0.19086541950411076  1.0000
  Sn  Sn4       1.0  0.25116484951140505  0.3363587312445318  0.9968714362037756  1.0000
  W   W1        1.0  0.5277199002789871  0.500475073885372  0.2129470017510912  1.0000
  W   W2        1.0  0.6525969983927591  0.41236080556815374  0.6733179748044903  1.0000
  W   W3        1.0  0.6054327345633942  0.9377657385612919  0.7009290088536491  1.0000
  W   W4        1.0  0.047997709152355794  0.8592593071837721  0.24306281872067145  1.0000
  O   O1        1.0  0.46595495076447985  0.8282138555970413  0.8416206594487605  1.0000
  O   O2        1.0  0.2252792403732164  0.9896970264711233  0.1737808475345075  1.0000
  O   O3        1.0  0.8503936732414715  0.2771746991262495  0.6552605756410046  1.0000
  O   O4        1.0  0.29046628328388335  0.5217421348552314  0.20872875615663866  1.0000
  O   O5        1.0  0.5585836595282414  0.4755958450962425  0.45214651963278296  1.0000
  O   O6        1.0  0.6784550671852012  0.7243698775363131  0.20625644991061387  1.0000
  O   O7        1.0  0.7313475165828747  0.6570519695867951  0.6188198237706567  1.0000
  O   O8        1.0  0.008786740916795812  0.7911479637900611  0.9857632167459285  1.0000
  O   O9        1.0  0.849483741655079  0.9552875381019147  0.7316006635705596  1.0000
  O   O10       1.0  0.21153065553239253  0.49886250578136715  0.7610574087797582  1.0000
  O   O11       1.0  0.4869245718597454  0.267048018942698  0.14443723502929276  1.0000
  O   O12       1.0  0.15702055330687936  0.7827178739580528  0.47013632700576113  1.0000
  O   O13       1.0  0.8788993054245551  0.022773709015537547  0.28795357583414305  1.0000
  O   O14       1.0  0.6015341131247591  0.460591573120561  0.9082203827935719  1.0000
  O   O15       1.0  0.5052879874889199  0.19331032504260157  0.7171118764241673  1.0000
  O   O16       1.0  0.6072329257014458  0.9824738588326254  0.46292421987205445  1.0000
data_image159
_chemical_formula_structural       Sn4W4O16
_chemical_formula_sum              "Sn4 W4 O16"
_cell_length_a       7.620549
_cell_length_b       7.620549
_cell_length_c       7.620549
_cell_angle_alpha    90.0
_cell_angle_beta     90.0
_cell_angle_gamma    90.0

_space_group_name_H-M_alt    "P 1"
_space_group_IT_number       1

loop_
  _space_group_symop_operation_xyz
  'x, y, z'

loop_
  _atom_site_type_symbol
  _atom_site_label
  _atom_site_symmetry_multiplicity
  _atom_site_fract_x
  _atom_site_fract_y
  _atom_site_fract_z
  _atom_site_occupancy
  Sn  Sn1       1.0  0.011138846348732816  0.7753391068356742  0.7261152541821999  1.0000
  Sn  Sn2       1.0  0.18008145285715438  0.3265558987511169  0.5477777751564911  1.0000
  Sn  Sn3       1.0  0.6048880652293406  0.9988382980634114  0.24569310076396153  1.0000
  Sn  Sn4       1.0  0.19796242762478986  0.3218419398065203  0.9700158909292143  1.0000
  W   W1        1.0  0.5829250619689138  0.48385804013337924  0.13033681313805662  1.0000
  W   W2        1.0  0.6886845103909632  0.41656232361098594  0.6652281903840496  1.0000
  W   W3        1.0  0.5794918912446718  0.9470294058814046  0.7322487526668198  1.0000
  W   W4        1.0  0.051067192019312424  0.846499365673777  0.2588162174304365  1.0000
  O   O1        1.0  0.39652083893442736  0.8454933684714727  0.8436874783596425  1.0000
  O   O2        1.0  0.16379918361598889  0.015598145558074192  0.13720168770134533  1.0000
  O   O3        1.0  0.8674620427793693  0.28191880749552156  0.6665395914271901  1.0000
  O   O4        1.0  0.37317103077992736  0.5633965952330868  0.12832037623957787  1.0000
  O   O5        1.0  0.5088446470040915  0.404999632381018  0.5081668402310804  1.0000
  O   O6        1.0  0.6650722572576993  0.6322610436920493  0.30311677240288365  1.0000
  O   O7        1.0  0.8121970067045461  0.626129418802516  0.628537311025253  1.0000
  O   O8        1.0  0.018135160315833218  0.6672732028729826  0.11458532461975876  1.0000
  O   O9        1.0  0.8332523082505094  0.9398668064124371  0.8217951799377645  1.0000
  O   O10       1.0  0.13317873836922892  0.5593791709234485  0.7872972630524044  1.0000
  O   O11       1.0  0.5415344159357492  0.2407310253443889  0.20178066275276618  1.0000
  O   O12       1.0  0.15092640831344561  0.8679218848606662  0.506739482620597  1.0000
  O   O13       1.0  0.8440120688414654  0.9950032601579527  0.30906223109250514  1.0000
  O   O14       1.0  0.6085717548913154  0.49509960201476266  0.8882973407652839  1.0000
  O   O15       1.0  0.5176448174749891  0.18266361842098267  0.7622199643321312  1.0000
  O   O16       1.0  0.5333693870391472  0.9119142130832121  0.48896439736264913  1.0000
data_image160
_chemical_formula_structural       Sn4W4O16
_chemical_formula_sum              "Sn4 W4 O16"
_cell_length_a       7.620549
_cell_length_b       7.620549
_cell_length_c       7.620549
_cell_angle_alpha    90.0
_cell_angle_beta     90.0
_cell_angle_gamma    90.0

_space_group_name_H-M_alt    "P 1"
_space_group_IT_number       1

loop_
  _space_group_symop_operation_xyz
  'x, y, z'

loop_
  _atom_site_type_symbol
  _atom_site_label
  _atom_site_symmetry_multiplicity
  _atom_site_fract_x
  _atom_site_fract_y
  _atom_site_fract_z
  _atom_site_occupancy
  Sn  Sn1       1.0  0.9990947768822203  0.7981671162703722  0.807068822819644  1.0000
  Sn  Sn2       1.0  0.20398547227502295  0.3670209691609764  0.5030596284048149  1.0000
  Sn  Sn3       1.0  0.5599894245636772  0.987324838544007  0.21764263209230722  1.0000
  Sn  Sn4       1.0  0.13245910792846521  0.3441610943606255  0.9774354833297149  1.0000
  W   W1        1.0  0.5976888987183137  0.46553832419865954  0.15991021862557414  1.0000
  W   W2        1.0  0.690506343604623  0.39401838186727833  0.6664774677933852  1.0000
  W   W3        1.0  0.5800791183538286  0.9556519206592856  0.7342666302922665  1.0000
  W   W4        1.0  0.07496986653416382  0.8597179012079765  0.23007568974286743  1.0000
  O   O1        1.0  0.37107236532265525  0.8558416690880682  0.790965356617041  1.0000
  O   O2        1.0  0.1819889609289608  0.038225894671440996  0.08132877245669112  1.0000
  O   O3        1.0  0.8367877033702669  0.23426597910879313  0.6007599403723364  1.0000
  O   O4        1.0  0.3534004345798007  0.4476774424447292  0.12224984445507954  1.0000
  O   O5        1.0  0.47471940545035024  0.4146679349221752  0.5679573756265166  1.0000
  O   O6        1.0  0.6377954195366089  0.6948269861495984  0.1955812925805954  1.0000
  O   O7        1.0  0.8076366580318831  0.6115963486599999  0.6190772559623554  1.0000
  O   O8        1.0  0.03415919423737649  0.7177630573746494  0.04790626152993331  1.0000
  O   O9        1.0  0.7289392726705798  0.8140296430296498  0.8946730696313818  1.0000
  O   O10       1.0  0.1909377516543036  0.49946252011675774  0.762242179057026  1.0000
  O   O11       1.0  0.7350933610147774  0.3510815220559554  0.3024944828371348  1.0000
  O   O12       1.0  0.21210730026082003  0.776449037667067  0.3988554638421412  1.0000
  O   O13       1.0  0.8944305320563432  0.9908980060278111  0.30462476186885723  1.0000
  O   O14       1.0  0.7290074207383617  0.3749617885034712  0.9176212683609062  1.0000
  O   O15       1.0  0.47086929868767285  0.18356391952329285  0.8161672722516491  1.0000
  O   O16       1.0  0.5672030517302311  0.9022075109625306  0.5039028849077918  1.0000
data_image161
_chemical_formula_structural       Sn4W4O16
_chemical_formula_sum              "Sn4 W4 O16"
_cell_length_a       7.620549
_cell_length_b       7.620549
_cell_length_c       7.620549
_cell_angle_alpha    90.0
_cell_angle_beta     90.0
_cell_angle_gamma    90.0

_space_group_name_H-M_alt    "P 1"
_space_group_IT_number       1

loop_
  _space_group_symop_operation_xyz
  'x, y, z'

loop_
  _atom_site_type_symbol
  _atom_site_label
  _atom_site_symmetry_multiplicity
  _atom_site_fract_x
  _atom_site_fract_y
  _atom_site_fract_z
  _atom_site_occupancy
  Sn  Sn1       1.0  0.005605460757073092  0.708734644969976  0.7573387684895209  1.0000
  Sn  Sn2       1.0  0.23309056427677577  0.4455553130467444  0.511814499161115  1.0000
  Sn  Sn3       1.0  0.6233250599204282  0.9608974676497551  0.19569277781389366  1.0000
  Sn  Sn4       1.0  0.027472011556393595  0.3438976664072862  0.9897369141371083  1.0000
  W   W1        1.0  0.6078846633380406  0.47466401412305675  0.14426742385294689  1.0000
  W   W2        1.0  0.6947902386781233  0.3745766960360774  0.6832265036138973  1.0000
  W   W3        1.0  0.5377894841903494  0.9516571439131863  0.7065191556887437  1.0000
  W   W4        1.0  0.10208777212244269  0.8697928684284084  0.27243311624675914  1.0000
  O   O1        1.0  0.342741595104678  0.8558950415194896  0.7856822796188202  1.0000
  O   O2        1.0  0.21809133252601662  0.04428288767766527  0.18294369394680143  1.0000
  O   O3        1.0  0.9283533603105989  0.2984256772582157  0.7558950466402858  1.0000
  O   O4        1.0  0.4171154185493981  0.34572039436167024  0.1792039114506244  1.0000
  O   O5        1.0  0.5079546425552847  0.41811135911058483  0.5493990637567916  1.0000
  O   O6        1.0  0.5156620192104584  0.6792012654654471  0.210854570047038  1.0000
  O   O7        1.0  0.7690345298999042  0.63210687460971  0.6337635846340486  1.0000
  O   O8        1.0  0.05993372142704336  0.6926635284092332  0.06991129760713495  1.0000
  O   O9        1.0  0.7442657074023991  0.9081120608085786  0.8179325286260275  1.0000
  O   O10       1.0  0.20106395392422952  0.5141455511817186  0.7914270935129648  1.0000
  O   O11       1.0  0.7941391198808168  0.39078207584272673  0.2533655565976689  1.0000
  O   O12       1.0  0.22017020982100788  0.7663293634173107  0.44857859983666326  1.0000
  O   O13       1.0  0.878328350881868  0.9386919974462066  0.30182200840804346  1.0000
  O   O14       1.0  0.6297846256558854  0.5137755899401144  0.9016926053851512  1.0000
  O   O15       1.0  0.5216144739701066  0.17975425712240017  0.7819087302484327  1.0000
  O   O16       1.0  0.5311982571269415  0.05330604510465009  0.4877502164086741  1.0000
data_image162
_chemical_formula_structural       Sn4W4O16
_chemical_formula_sum              "Sn4 W4 O16"
_cell_length_a       7.620549
_cell_length_b       7.620549
_cell_length_c       7.620549
_cell_angle_alpha    90.0
_cell_angle_beta     90.0
_cell_angle_gamma    90.0

_space_group_name_H-M_alt    "P 1"
_space_group_IT_number       1

loop_
  _space_group_symop_operation_xyz
  'x, y, z'

loop_
  _atom_site_type_symbol
  _atom_site_label
  _atom_site_symmetry_multiplicity
  _atom_site_fract_x
  _atom_site_fract_y
  _atom_site_fract_z
  _atom_site_occupancy
  Sn  Sn1       1.0  0.978864671697652  0.6944556654167748  0.7929100638068058  1.0000
  Sn  Sn2       1.0  0.22938184820197738  0.4232071630732811  0.49886722539945233  1.0000
  Sn  Sn3       1.0  0.6280932882017504  0.9698550681573281  0.21570457625960893  1.0000
  Sn  Sn4       1.0  0.05967541011729936  0.34333700362480085  0.9996639952250385  1.0000
  W   W1        1.0  0.5850692289320903  0.48838491263371914  0.12633707216804557  1.0000
  W   W2        1.0  0.66378653892294  0.38228534764165856  0.6885590485677012  1.0000
  W   W3        1.0  0.5967302706082176  0.9818384476636368  0.6954362846881367  1.0000
  W   W4        1.0  0.1002096396765011  0.8664261338959817  0.28049306451804057  1.0000
  O   O1        1.0  0.41043840075325444  0.8567255285216369  0.767259989959934  1.0000
  O   O2        1.0  0.18736139532437981  0.06960472619339826  0.4006555009071735  1.0000
  O   O3        1.0  0.7803339202117988  0.15926034497458275  0.6841564656955359  1.0000
  O   O4        1.0  0.3800654102420786  0.38834037530704846  0.15450658371726528  1.0000
  O   O5        1.0  0.47832733193908183  0.3473349363565075  0.49891114138355946  1.0000
  O   O6        1.0  0.593434807244458  0.6654188038344212  0.31621570528066323  1.0000
  O   O7        1.0  0.8234048403446673  0.5323468537666909  0.5903079381466665  1.0000
  O   O8        1.0  0.16260904314384247  0.8264476474103137  0.062349129386431355  1.0000
  O   O9        1.0  0.7812003841369554  0.8444284685521171  0.750931094853365  1.0000
  O   O10       1.0  0.18509096405337708  0.4720452327517501  0.7755866911428815  1.0000
  O   O11       1.0  0.7910649552192285  0.3681140833859819  0.13797160403638423  1.0000
  O   O12       1.0  0.07184295235852467  0.6418378007653539  0.36995586079589204  1.0000
  O   O13       1.0  0.8856784757896105  0.9642950595575741  0.29428296690755446  1.0000
  O   O14       1.0  0.6231289991444378  0.5567038786889092  0.8842632177001964  1.0000
  O   O15       1.0  0.4977241316182996  0.18589146672702903  0.8151674089853782  1.0000
  O   O16       1.0  0.5487536347198534  0.9842592550940287  0.4656920146090276  1.0000
data_image163
_chemical_formula_structural       Sn4W4O16
_chemical_formula_sum              "Sn4 W4 O16"
_cell_length_a       7.620549
_cell_length_b       7.620549
_cell_length_c       7.620549
_cell_angle_alpha    90.0
_cell_angle_beta     90.0
_cell_angle_gamma    90.0

_space_group_name_H-M_alt    "P 1"
_space_group_IT_number       1

loop_
  _space_group_symop_operation_xyz
  'x, y, z'

loop_
  _atom_site_type_symbol
  _atom_site_label
  _atom_site_symmetry_multiplicity
  _atom_site_fract_x
  _atom_site_fract_y
  _atom_site_fract_z
  _atom_site_occupancy
  Sn  Sn1       1.0  0.059867216311146394  0.7233941781452594  0.8079541325528614  1.0000
  Sn  Sn2       1.0  0.21708664598739436  0.37618607576577967  0.43349791223366163  1.0000
  Sn  Sn3       1.0  0.5716777219559853  0.9886335004087468  0.22940487519049907  1.0000
  Sn  Sn4       1.0  0.1348095854623618  0.26515814844785207  0.9983956812700878  1.0000
  W   W1        1.0  0.5666571225078663  0.4743201561111317  0.13461707635665815  1.0000
  W   W2        1.0  0.6426804042400598  0.4082242632836328  0.6954904703476167  1.0000
  W   W3        1.0  0.5634656921390905  0.9799695607508344  0.7119523912132197  1.0000
  W   W4        1.0  0.10771666546540137  0.8852442114469923  0.2768087517487085  1.0000
  O   O1        1.0  0.3855613596489866  0.8390457442977628  0.7041749432518629  1.0000
  O   O2        1.0  0.31116007459978656  0.04191770745521727  0.3360664802852207  1.0000
  O   O3        1.0  0.8045319931444165  0.21580173240660588  0.7117677525410051  1.0000
  O   O4        1.0  0.3487645196027123  0.3524536005419847  0.18475842016083352  1.0000
  O   O5        1.0  0.5644811970636205  0.48191691617262894  0.45937086684219747  1.0000
  O   O6        1.0  0.5865082817840002  0.7462979975462373  0.09783632014746857  1.0000
  O   O7        1.0  0.8112334226046506  0.567289708088992  0.741782504408525  1.0000
  O   O8        1.0  0.13248340522058805  0.8758806810202061  0.038483111042563495  1.0000
  O   O9        1.0  0.7753662318039197  0.8823156513490781  0.8480569618276553  1.0000
  O   O10       1.0  0.1484234252766347  0.4347028788134864  0.7916151286255627  1.0000
  O   O11       1.0  0.7532085690701479  0.3335527199327931  0.12396424884362099  1.0000
  O   O12       1.0  0.1308518703891346  0.6735995905942291  0.40569093652685034  1.0000
  O   O13       1.0  0.8800304646308088  0.9473161575006503  0.3134297257277357  1.0000
  O   O14       1.0  0.5466713740984058  0.5241118715243719  0.8941719908685399  1.0000
  O   O15       1.0  0.4785979117325104  0.22697969898319212  0.7585576862699595  1.0000
  O   O16       1.0  0.6442839303047546  0.947286574034208  0.5131344412175162  1.0000
data_image164
_chemical_formula_structural       Sn4W4O16
_chemical_formula_sum              "Sn4 W4 O16"
_cell_length_a       7.620549
_cell_length_b       7.620549
_cell_length_c       7.620549
_cell_angle_alpha    90.0
_cell_angle_beta     90.0
_cell_angle_gamma    90.0

_space_group_name_H-M_alt    "P 1"
_space_group_IT_number       1

loop_
  _space_group_symop_operation_xyz
  'x, y, z'

loop_
  _atom_site_type_symbol
  _atom_site_label
  _atom_site_symmetry_multiplicity
  _atom_site_fract_x
  _atom_site_fract_y
  _atom_site_fract_z
  _atom_site_occupancy
  Sn  Sn1       1.0  0.11274197854217809  0.7525818068842174  0.8328969267494528  1.0000
  Sn  Sn2       1.0  0.20337153259781915  0.3455879841229866  0.47556521718464195  1.0000
  Sn  Sn3       1.0  0.6542970675750772  0.9695143735451158  0.2128365812615997  1.0000
  Sn  Sn4       1.0  0.11279384391027716  0.2638584259773012  0.9444652544922281  1.0000
  W   W1        1.0  0.5827978675016575  0.46423158428702277  0.14978150866854806  1.0000
  W   W2        1.0  0.6096697072231585  0.4063161673785847  0.6503491821132396  1.0000
  W   W3        1.0  0.5666531777743479  0.9976793326349251  0.7441725432346068  1.0000
  W   W4        1.0  0.08162749824871796  0.8800663091568999  0.2875579777909413  1.0000
  O   O1        1.0  0.4094477319954311  0.8558985713067649  0.8228579744869337  1.0000
  O   O2        1.0  0.23294333021594396  0.05835596832792419  0.3533049106710233  1.0000
  O   O3        1.0  0.7680023048366837  0.22308022971185534  0.6516704611900443  1.0000
  O   O4        1.0  0.30230449116362845  0.3344656844135181  0.14722436784804957  1.0000
  O   O5        1.0  0.4898705995843086  0.43682318468625403  0.3783149468739364  1.0000
  O   O6        1.0  0.621394046547753  0.6975211525674366  0.17652648833903417  1.0000
  O   O7        1.0  0.797286790256925  0.5673938587568328  0.6140461052945108  1.0000
  O   O8        1.0  0.15669956924424272  0.8490508696622776  0.07810042893122902  1.0000
  O   O9        1.0  0.711504709824278  0.9248620850323184  0.9476028086620505  1.0000
  O   O10       1.0  0.09430874582062257  0.5246600665138939  0.9397568929712604  1.0000
  O   O11       1.0  0.786189296901221  0.363112372395681  0.03702003141622321  1.0000
  O   O12       1.0  0.12546596368180607  0.6640160068553  0.3619273525199382  1.0000
  O   O13       1.0  0.8925314087189506  0.04819441944406133  0.21790093020867587  1.0000
  O   O14       1.0  0.5863181272502527  0.5381521931712733  0.8532399507289813  1.0000
  O   O15       1.0  0.3894539912581033  0.25115210454472314  0.6366085890240545  1.0000
  O   O16       1.0  0.6875795344152518  0.8890183969816885  0.566555996806379  1.0000
data_image165
_chemical_formula_structural       Sn4W4O16
_chemical_formula_sum              "Sn4 W4 O16"
_cell_length_a       7.620549
_cell_length_b       7.620549
_cell_length_c       7.620549
_cell_angle_alpha    90.0
_cell_angle_beta     90.0
_cell_angle_gamma    90.0

_space_group_name_H-M_alt    "P 1"
_space_group_IT_number       1

loop_
  _space_group_symop_operation_xyz
  'x, y, z'

loop_
  _atom_site_type_symbol
  _atom_site_label
  _atom_site_symmetry_multiplicity
  _atom_site_fract_x
  _atom_site_fract_y
  _atom_site_fract_z
  _atom_site_occupancy
  Sn  Sn1       1.0  0.18932029915608517  0.802239994898165  0.8390714014147431  1.0000
  Sn  Sn2       1.0  0.16597013960380935  0.32710915692712234  0.42465235230147647  1.0000
  Sn  Sn3       1.0  0.628458135815505  0.9566932944592585  0.21629019986088688  1.0000
  Sn  Sn4       1.0  0.11551422967890622  0.30799367544456935  0.9178392916826358  1.0000
  W   W1        1.0  0.5513827713655801  0.439877337711509  0.1206894786712168  1.0000
  W   W2        1.0  0.6259146180698844  0.3974515195076493  0.6088256939978739  1.0000
  W   W3        1.0  0.5838321534869666  0.9947197521337979  0.7733683004535656  1.0000
  W   W4        1.0  0.08619843735336019  0.8800221958361926  0.310111950464338  1.0000
  O   O1        1.0  0.4370451006389265  0.8540586507015667  0.9351865852211523  1.0000
  O   O2        1.0  0.1833681752034421  0.04816861710237542  0.4699262112900209  1.0000
  O   O3        1.0  0.743794830652257  0.23097322825034947  0.7526812720785281  1.0000
  O   O4        1.0  0.31838338600092725  0.26560377743486363  0.10069738054531535  1.0000
  O   O5        1.0  0.48113562261452275  0.4202776771536463  0.42915033238163475  1.0000
  O   O6        1.0  0.5801112154538712  0.6692505015687684  0.16048066069069744  1.0000
  O   O7        1.0  0.7918117313510737  0.5355682516851281  0.5247757383501557  1.0000
  O   O8        1.0  0.1087628256302818  0.9695489840070078  0.07270645473981516  1.0000
  O   O9        1.0  0.7406790904287769  0.9873959928798283  0.9845300866346599  1.0000
  O   O10       1.0  0.14677402448538807  0.5795134478006327  0.9717723539175449  1.0000
  O   O11       1.0  0.764138596287965  0.3624772542816697  0.17682317641213582  1.0000
  O   O12       1.0  0.09868576654838956  0.6825972429726965  0.4225934337341262  1.0000
  O   O13       1.0  0.8532882718874489  0.9311081568259014  0.36770570694351845  1.0000
  O   O14       1.0  0.551227505215289  0.5432979706361922  0.7870937587368725  1.0000
  O   O15       1.0  0.44858257096261  0.21799852846701956  0.765765815449078  1.0000
  O   O16       1.0  0.5963957380383885  0.8733132360363289  0.5784716271790702  1.0000
data_image166
_chemical_formula_structural       Sn4W4O16
_chemical_formula_sum              "Sn4 W4 O16"
_cell_length_a       7.620549
_cell_length_b       7.620549
_cell_length_c       7.620549
_cell_angle_alpha    90.0
_cell_angle_beta     90.0
_cell_angle_gamma    90.0

_space_group_name_H-M_alt    "P 1"
_space_group_IT_number       1

loop_
  _space_group_symop_operation_xyz
  'x, y, z'

loop_
  _atom_site_type_symbol
  _atom_site_label
  _atom_site_symmetry_multiplicity
  _atom_site_fract_x
  _atom_site_fract_y
  _atom_site_fract_z
  _atom_site_occupancy
  Sn  Sn1       1.0  0.2034109988741873  0.8273657322134552  0.8703630448851364  1.0000
  Sn  Sn2       1.0  0.13918468302390052  0.3648935479413  0.333205503683964  1.0000
  Sn  Sn3       1.0  0.6025583633170463  0.9309740351456376  0.19733809366825342  1.0000
  Sn  Sn4       1.0  0.10928657142869873  0.3396785881793124  0.9512546203965249  1.0000
  W   W1        1.0  0.5146350025241292  0.42921507097202144  0.06586909352205376  1.0000
  W   W2        1.0  0.6804270116812847  0.39643689755692846  0.6103590827946321  1.0000
  W   W3        1.0  0.5864290385241628  0.05663448733802157  0.7994276614463143  1.0000
  W   W4        1.0  0.08066327383152294  0.8321645364688509  0.3347096642524007  1.0000
  O   O1        1.0  0.4047664591398608  0.9641835428968074  0.995263315345328  1.0000
  O   O2        1.0  0.1578099676512864  0.9821225537469634  0.5208529984764039  1.0000
  O   O3        1.0  0.7182213020213064  0.1440337922620425  0.5908767393991184  1.0000
  O   O4        1.0  0.31163885334760477  0.2862117580335888  0.1610534124301345  1.0000
  O   O5        1.0  0.5048745777835034  0.4281026166580036  0.47969935997194485  1.0000
  O   O6        1.0  0.5829816370681662  0.595137771219929  0.18811549608629002  1.0000
  O   O7        1.0  0.890234966297561  0.47822035116917017  0.5268918308492418  1.0000
  O   O8        1.0  0.1267846457915563  0.9351294471259989  0.1250056003464897  1.0000
  O   O9        1.0  0.7277341438989815  0.9458085397381897  0.945855604972149  1.0000
  O   O10       1.0  0.3236948010242558  0.5524383739687573  0.9610325583127126  1.0000
  O   O11       1.0  0.6000868422311229  0.23593618750689496  0.16550134388677323  1.0000
  O   O12       1.0  0.16639257637614668  0.642096101345489  0.4679653504696848  1.0000
  O   O13       1.0  0.8629250955500803  0.8305407679980374  0.39260467044712066  1.0000
  O   O14       1.0  0.7221990895607533  0.4429417544290743  0.879161499705883  1.0000
  O   O15       1.0  0.4450901986837459  0.2696952403089017  0.7885164968001003  1.0000
  O   O16       1.0  0.4723002081454495  0.8954051785702096  0.6855258874248858  1.0000
data_image167
_chemical_formula_structural       Sn4W4O16
_chemical_formula_sum              "Sn4 W4 O16"
_cell_length_a       7.620549
_cell_length_b       7.620549
_cell_length_c       7.620549
_cell_angle_alpha    90.0
_cell_angle_beta     90.0
_cell_angle_gamma    90.0

_space_group_name_H-M_alt    "P 1"
_space_group_IT_number       1

loop_
  _space_group_symop_operation_xyz
  'x, y, z'

loop_
  _atom_site_type_symbol
  _atom_site_label
  _atom_site_symmetry_multiplicity
  _atom_site_fract_x
  _atom_site_fract_y
  _atom_site_fract_z
  _atom_site_occupancy
  Sn  Sn1       1.0  0.23105621986939145  0.8634523649614532  0.8404242917892992  1.0000
  Sn  Sn2       1.0  0.16663064430591823  0.38471757640495796  0.38058210247343555  1.0000
  Sn  Sn3       1.0  0.6468624518643562  0.9055674887855512  0.2145803610909193  1.0000
  Sn  Sn4       1.0  0.10936145985229034  0.3708022734313567  0.9431701306023634  1.0000
  W   W1        1.0  0.5357685899942645  0.39079963838284637  0.044326948267480036  1.0000
  W   W2        1.0  0.6959693453447694  0.4027318707737884  0.6326172587977921  1.0000
  W   W3        1.0  0.5336108299819334  0.040176001384321196  0.7671015149751395  1.0000
  W   W4        1.0  0.04741442618567193  0.8297181451268439  0.36363333122345715  1.0000
  O   O1        1.0  0.4194482712282754  0.9681861242444451  0.03807388654559467  1.0000
  O   O2        1.0  0.10668005307480408  0.061108576026762784  0.43633374092583455  1.0000
  O   O3        1.0  0.5713270080098912  0.20024544710866096  0.5631822733625618  1.0000
  O   O4        1.0  0.31844792417501877  0.33646144856816607  0.14987058208542686  1.0000
  O   O5        1.0  0.5558912984901788  0.5534146750235286  0.5360902524314093  1.0000
  O   O6        1.0  0.5328517428019295  0.6172338574209835  0.14328919612402258  1.0000
  O   O7        1.0  0.9268812339989624  0.3653990583075264  0.5137718438159502  1.0000
  O   O8        1.0  0.10997556342904256  0.7315711657238975  0.16580047892997268  1.0000
  O   O9        1.0  0.7259617847725244  0.9790709549215907  0.8902558317896081  1.0000
  O   O10       1.0  0.2667291466460818  0.592792087104093  0.9094487261302036  1.0000
  O   O11       1.0  0.7189462711556194  0.34994658654745375  0.18723427086827382  1.0000
  O   O12       1.0  0.15548447296333423  0.6553481119689715  0.4980160746267624  1.0000
  O   O13       1.0  0.8392047279493281  0.7274113140514353  0.36458426789425413  1.0000
  O   O14       1.0  0.73947402745232  0.5068106344883545  0.8382863326347824  1.0000
  O   O15       1.0  0.43936966961628016  0.27964492314211015  0.8425819532051668  1.0000
  O   O16       1.0  0.4148723612184514  0.8454987556363901  0.6491578289906164  1.0000
data_image168
_chemical_formula_structural       Sn4W4O16
_chemical_formula_sum              "Sn4 W4 O16"
_cell_length_a       7.620549
_cell_length_b       7.620549
_cell_length_c       7.620549
_cell_angle_alpha    90.0
_cell_angle_beta     90.0
_cell_angle_gamma    90.0

_space_group_name_H-M_alt    "P 1"
_space_group_IT_number       1

loop_
  _space_group_symop_operation_xyz
  'x, y, z'

loop_
  _atom_site_type_symbol
  _atom_site_label
  _atom_site_symmetry_multiplicity
  _atom_site_fract_x
  _atom_site_fract_y
  _atom_site_fract_z
  _atom_site_occupancy
  Sn  Sn1       1.0  0.14650944913333389  0.7759885852965263  0.8684924687038924  1.0000
  Sn  Sn2       1.0  0.20966420188120916  0.3512187003585699  0.5308633599821299  1.0000
  Sn  Sn3       1.0  0.580981852518125  0.8826152464995481  0.2571409433502014  1.0000
  Sn  Sn4       1.0  0.11765275391394923  0.40226628008462134  0.9419575777770404  1.0000
  W   W1        1.0  0.5434463409593531  0.4328780717893777  0.040812980423489464  1.0000
  W   W2        1.0  0.7056307037514211  0.4424861087572133  0.5900051791826182  1.0000
  W   W3        1.0  0.5385901063476315  0.0387728872636348  0.753057137390642  1.0000
  W   W4        1.0  0.06167575728589969  0.8162355822234478  0.34558005257548885  1.0000
  O   O1        1.0  0.4137310706741961  0.8998575887190428  0.9166558006147735  1.0000
  O   O2        1.0  0.1484875346510258  0.024583184717997763  0.2904276614611019  1.0000
  O   O3        1.0  0.6595468614841902  0.19772310232082616  0.5476396756133465  1.0000
  O   O4        1.0  0.3261412557325542  0.4428338638902496  0.17460972359651272  1.0000
  O   O5        1.0  0.5994130213084825  0.5797057886138741  0.4549150738367609  1.0000
  O   O6        1.0  0.6831656427583002  0.6426863519744748  0.12196430930932639  1.0000
  O   O7        1.0  0.9383241988394326  0.4042937472280014  0.506355297939718  1.0000
  O   O8        1.0  0.08592158127569097  0.6837094067342675  0.15465517595612352  1.0000
  O   O9        1.0  0.767748738080858  0.9637929706717874  0.758241049139464  1.0000
  O   O10       1.0  0.2929117096544384  0.5362136573839059  0.8173104402762567  1.0000
  O   O11       1.0  0.639892294414743  0.24461762667096856  0.12929327850355674  1.0000
  O   O12       1.0  0.15542806794664998  0.6789947024541788  0.5222101449138462  1.0000
  O   O13       1.0  0.8205440301686396  0.8073578547626642  0.37222141454656926  1.0000
  O   O14       1.0  0.7254240080338219  0.48531783541851503  0.8432500699978926  1.0000
  O   O15       1.0  0.4940765431718909  0.2824244943386928  0.8317835929412406  1.0000
  O   O16       1.0  0.4046747492721342  0.9742852748977985  0.5484175221074442  1.0000
data_image169
_chemical_formula_structural       Sn4W4O16
_chemical_formula_sum              "Sn4 W4 O16"
_cell_length_a       7.620549
_cell_length_b       7.620549
_cell_length_c       7.620549
_cell_angle_alpha    90.0
_cell_angle_beta     90.0
_cell_angle_gamma    90.0

_space_group_name_H-M_alt    "P 1"
_space_group_IT_number       1

loop_
  _space_group_symop_operation_xyz
  'x, y, z'

loop_
  _atom_site_type_symbol
  _atom_site_label
  _atom_site_symmetry_multiplicity
  _atom_site_fract_x
  _atom_site_fract_y
  _atom_site_fract_z
  _atom_site_occupancy
  Sn  Sn1       1.0  0.19699791481142756  0.8216209620890277  0.8897841538346487  1.0000
  Sn  Sn2       1.0  0.22505874080126165  0.45974074138189613  0.5871430662647082  1.0000
  Sn  Sn3       1.0  0.5284769971468227  0.8071323438475301  0.25458876779067086  1.0000
  Sn  Sn4       1.0  0.09535141761652788  0.35845484365840913  0.04875560674656265  1.0000
  W   W1        1.0  0.5469634764474542  0.4137542327296063  0.006476282708841874  1.0000
  W   W2        1.0  0.7171975504469139  0.46949049562594863  0.5499117490644019  1.0000
  W   W3        1.0  0.5304542689534886  0.0226044059208859  0.7458158644851505  1.0000
  W   W4        1.0  0.058719626883886544  0.8109927549640052  0.3117113266687713  1.0000
  O   O1        1.0  0.42546372395629856  0.9052795024948588  0.9666337906174135  1.0000
  O   O2        1.0  0.2751454080491007  0.8927931123892803  0.25712481317980207  1.0000
  O   O3        1.0  0.680256831089381  0.20962263046095936  0.5692606317227898  1.0000
  O   O4        1.0  0.34898676657975725  0.3971206913774803  0.14595565245301467  1.0000
  O   O5        1.0  0.5231031038443478  0.5625874065081833  0.47657533169536426  1.0000
  O   O6        1.0  0.648936547811094  0.6139307280851031  0.1413471606536053  1.0000
  O   O7        1.0  0.9161672186365448  0.5145751705532766  0.4099032942201946  1.0000
  O   O8        1.0  0.05296986122610384  0.6701058901202634  0.10917631159133692  1.0000
  O   O9        1.0  0.7328885045366059  0.9405061727468038  0.824250286312265  1.0000
  O   O10       1.0  0.23286282212270867  0.5374592932161262  0.8309903261987269  1.0000
  O   O11       1.0  0.6571436735047854  0.24822778464717185  0.11278009194512416  1.0000
  O   O12       1.0  0.15289543278050477  0.6938757714179796  0.5066710183241131  1.0000
  O   O13       1.0  0.9261107233353948  0.9595782325585657  0.40554617612008803  1.0000
  O   O14       1.0  0.7144781243015739  0.46123522047782023  0.8309378749946841  1.0000
  O   O15       1.0  0.43261813014621736  0.2377251764261307  0.8165562026766081  1.0000
  O   O16       1.0  0.4580812796041471  0.9068664359361883  0.5569417187476151  1.0000
data_image170
_chemical_formula_structural       Sn4W4O16
_chemical_formula_sum              "Sn4 W4 O16"
_cell_length_a       7.620549
_cell_length_b       7.620549
_cell_length_c       7.620549
_cell_angle_alpha    90.0
_cell_angle_beta     90.0
_cell_angle_gamma    90.0

_space_group_name_H-M_alt    "P 1"
_space_group_IT_number       1

loop_
  _space_group_symop_operation_xyz
  'x, y, z'

loop_
  _atom_site_type_symbol
  _atom_site_label
  _atom_site_symmetry_multiplicity
  _atom_site_fract_x
  _atom_site_fract_y
  _atom_site_fract_z
  _atom_site_occupancy
  Sn  Sn1       1.0  0.18080776345996952  0.833263066965549  0.9046533106191409  1.0000
  Sn  Sn2       1.0  0.2359772126196058  0.4874730276583864  0.5758958197116677  1.0000
  Sn  Sn3       1.0  0.540792611719589  0.8445319599895164  0.32830634631041633  1.0000
  Sn  Sn4       1.0  0.07355536146795151  0.37329400428589815  0.06185913030183543  1.0000
  W   W1        1.0  0.49908526960562427  0.4097210962354158  0.9973400029440554  1.0000
  W   W2        1.0  0.6909313200792367  0.42256104294112273  0.5464670649633476  1.0000
  W   W3        1.0  0.6032975064148833  0.04646494779360538  0.719927243356553  1.0000
  W   W4        1.0  0.056947550307874906  0.788797166094258  0.3235341639181561  1.0000
  O   O1        1.0  0.48525488541947814  0.9397374099854964  0.9583543648353237  1.0000
  O   O2        1.0  0.2775429068217415  0.7911964670661196  0.20257368742777926  1.0000
  O   O3        1.0  0.674125672888618  0.1778858358241537  0.47643170326778617  1.0000
  O   O4        1.0  0.3207116262895029  0.2579109630569798  0.15908978851722094  1.0000
  O   O5        1.0  0.49971213896453853  0.5330880232773255  0.4480890458672274  1.0000
  O   O6        1.0  0.553929493414208  0.6243116852430461  0.08225376799631358  1.0000
  O   O7        1.0  0.8757015780216888  0.5751000224413825  0.4659459663361715  1.0000
  O   O8        1.0  0.014388143771184633  0.6467740152065787  0.1642597643433309  1.0000
  O   O9        1.0  0.8151324085252498  0.9625020578740155  0.73513882936461  1.0000
  O   O10       1.0  0.24701800789565506  0.5014646907161352  0.8696377707019408  1.0000
  O   O11       1.0  0.6574844133049496  0.27816118705346926  0.10459032872308069  1.0000
  O   O12       1.0  0.18668261861107838  0.7434749706829993  0.5420150158840458  1.0000
  O   O13       1.0  0.9638136528886849  0.019363294898231187  0.2905349331547638  1.0000
  O   O14       1.0  0.7399095240945225  0.472802327119106  0.7505838991661531  1.0000
  O   O15       1.0  0.4862192060035244  0.268764710550955  0.752015195281756  1.0000
  O   O16       1.0  0.4933932229074458  0.857188842907991  0.5860191692816686  1.0000
data_image171
_chemical_formula_structural       Sn4W4O16
_chemical_formula_sum              "Sn4 W4 O16"
_cell_length_a       7.620549
_cell_length_b       7.620549
_cell_length_c       7.620549
_cell_angle_alpha    90.0
_cell_angle_beta     90.0
_cell_angle_gamma    90.0

_space_group_name_H-M_alt    "P 1"
_space_group_IT_number       1

loop_
  _space_group_symop_operation_xyz
  'x, y, z'

loop_
  _atom_site_type_symbol
  _atom_site_label
  _atom_site_symmetry_multiplicity
  _atom_site_fract_x
  _atom_site_fract_y
  _atom_site_fract_z
  _atom_site_occupancy
  Sn  Sn1       1.0  0.18262187940416136  0.8103594772556854  0.828400502097022  1.0000
  Sn  Sn2       1.0  0.26256487350260516  0.4555104411488921  0.6056732981712609  1.0000
  Sn  Sn3       1.0  0.5557447810911403  0.8549610785325933  0.28865299359228885  1.0000
  Sn  Sn4       1.0  0.02778942959199349  0.38077696948235984  0.05502653375418087  1.0000
  W   W1        1.0  0.4522949348426089  0.37840489538653455  0.995415238795487  1.0000
  W   W2        1.0  0.7218375249996638  0.46544228054348924  0.5562449044052883  1.0000
  W   W3        1.0  0.6429922643000495  0.08290489978350843  0.7781489836119561  1.0000
  W   W4        1.0  0.04156843312414504  0.7572899076150871  0.3048912351554591  1.0000
  O   O1        1.0  0.4987691921465379  0.9578265315445378  0.9407375231618756  1.0000
  O   O2        1.0  0.23538216835894768  0.9102667645576744  0.3352517834411577  1.0000
  O   O3        1.0  0.7430307135841071  0.24360944222991038  0.4971929906335506  1.0000
  O   O4        1.0  0.26502439923701043  0.25490859237076346  0.05440897899184766  1.0000
  O   O5        1.0  0.5330757053830294  0.6030516419734726  0.5476383482119703  1.0000
  O   O6        1.0  0.4223076522770892  0.5538080182402274  0.13986727203117105  1.0000
  O   O7        1.0  0.8779405912246623  0.5625776377076528  0.4109414201681711  1.0000
  O   O8        1.0  0.056761179626160896  0.6790289267595293  0.07446079490727793  1.0000
  O   O9        1.0  0.8393128331902192  0.9493119789596658  0.8042007129820854  1.0000
  O   O10       1.0  0.2848846409656115  0.5108207361548923  0.8527385735912556  1.0000
  O   O11       1.0  0.6364443173077405  0.2570278515902262  0.07064648580521316  1.0000
  O   O12       1.0  0.0946482790422345  0.7071120924771642  0.5896352637305294  1.0000
  O   O13       1.0  0.8327329245061634  0.8549672621026503  0.32938429268429786  1.0000
  O   O14       1.0  0.8442816788780245  0.41281527842924515  0.7430911946942644  1.0000
  O   O15       1.0  0.4743457612832624  0.3300967701296185  0.7317084047021384  1.0000
  O   O16       1.0  0.5753497538617625  0.9490373571445615  0.5848795994886578  1.0000
data_image172
_chemical_formula_structural       Sn4W4O16
_chemical_formula_sum              "Sn4 W4 O16"
_cell_length_a       7.620549
_cell_length_b       7.620549
_cell_length_c       7.620549
_cell_angle_alpha    90.0
_cell_angle_beta     90.0
_cell_angle_gamma    90.0

_space_group_name_H-M_alt    "P 1"
_space_group_IT_number       1

loop_
  _space_group_symop_operation_xyz
  'x, y, z'

loop_
  _atom_site_type_symbol
  _atom_site_label
  _atom_site_symmetry_multiplicity
  _atom_site_fract_x
  _atom_site_fract_y
  _atom_site_fract_z
  _atom_site_occupancy
  Sn  Sn1       1.0  0.22186978360218262  0.771327015555016  0.7889438975344242  1.0000
  Sn  Sn2       1.0  0.28866284256748465  0.4097888995402125  0.5468727925246902  1.0000
  Sn  Sn3       1.0  0.48968678186745385  0.8437467023391639  0.2921235312442213  1.0000
  Sn  Sn4       1.0  0.9466997319649576  0.3560283651242674  0.04932099049895866  1.0000
  W   W1        1.0  0.44430655075770015  0.3951514411534373  0.03918921533810337  1.0000
  W   W2        1.0  0.7432033958846304  0.47000079913105647  0.5294134598031727  1.0000
  W   W3        1.0  0.6585218869673046  0.07023413704749694  0.7937114651609518  1.0000
  W   W4        1.0  0.045891426828329474  0.7898206108775985  0.3067876290444456  1.0000
  O   O1        1.0  0.5533444791240189  0.9432363415629385  0.9713330152621524  1.0000
  O   O2        1.0  0.15432998833613618  0.997350726805938  0.3476273010957971  1.0000
  O   O3        1.0  0.7475639256839189  0.25027754671398805  0.5826818160578099  1.0000
  O   O4        1.0  0.30356028127614276  0.2221507885328462  0.13141464037921904  1.0000
  O   O5        1.0  0.5234574427196457  0.5749902061966308  0.5620031074040166  1.0000
  O   O6        1.0  0.4440417372117309  0.5904728639471799  0.20418720158599918  1.0000
  O   O7        1.0  0.896295906131386  0.5591703612478953  0.3587177016715299  1.0000
  O   O8        1.0  0.07658684646503912  0.7160368954873829  0.10504910182338698  1.0000
  O   O9        1.0  0.8898078508178604  0.11033510325723883  0.8256833426915471  1.0000
  O   O10       1.0  0.3026422069005993  0.5169317753040517  0.8603879843320414  1.0000
  O   O11       1.0  0.67712971568815  0.3153504356774164  0.09771562994178642  1.0000
  O   O12       1.0  0.17761710323403324  0.7156454454075113  0.5112513145292351  1.0000
  O   O13       1.0  0.8055394867375011  0.8742635382252807  0.31451513872117104  1.0000
  O   O14       1.0  0.8507020702765883  0.5657290613107723  0.7263463826547326  1.0000
  O   O15       1.0  0.4710714202253501  0.2551605652849558  0.8305467297819329  1.0000
  O   O16       1.0  0.5646231364728739  0.9549774522783959  0.6137645664697202  1.0000
data_image173
_chemical_formula_structural       Sn4W4O16
_chemical_formula_sum              "Sn4 W4 O16"
_cell_length_a       7.620549
_cell_length_b       7.620549
_cell_length_c       7.620549
_cell_angle_alpha    90.0
_cell_angle_beta     90.0
_cell_angle_gamma    90.0

_space_group_name_H-M_alt    "P 1"
_space_group_IT_number       1

loop_
  _space_group_symop_operation_xyz
  'x, y, z'

loop_
  _atom_site_type_symbol
  _atom_site_label
  _atom_site_symmetry_multiplicity
  _atom_site_fract_x
  _atom_site_fract_y
  _atom_site_fract_z
  _atom_site_occupancy
  Sn  Sn1       1.0  0.23352658787521924  0.7880514861760929  0.7625088946226987  1.0000
  Sn  Sn2       1.0  0.3019773791243643  0.33297214513953377  0.5348234347521686  1.0000
  Sn  Sn3       1.0  0.5099530526986661  0.8743314285723858  0.31300046653215446  1.0000
  Sn  Sn4       1.0  0.902931254955865  0.3487325247753935  0.030515429836914798  1.0000
  W   W1        1.0  0.42550320328761293  0.42479330586623165  0.036556270539395905  1.0000
  W   W2        1.0  0.7472075685637241  0.4849862619205265  0.5082538224023577  1.0000
  W   W3        1.0  0.6727051593983129  0.05814680251192449  0.819756011697005  1.0000
  W   W4        1.0  0.03809243318026567  0.8128526207058908  0.32610587649655987  1.0000
  O   O1        1.0  0.5292616613004907  0.9608741671026364  0.9897584892556976  1.0000
  O   O2        1.0  0.2135114689578014  0.9747063617863319  0.26639296658927214  1.0000
  O   O3        1.0  0.7077646835773275  0.2737236208751324  0.6323850097663751  1.0000
  O   O4        1.0  0.25810186109632033  0.34661655585039486  0.1565591072908867  1.0000
  O   O5        1.0  0.5190650593916901  0.537797319337632  0.5206631045393277  1.0000
  O   O6        1.0  0.5166413726630357  0.6352509808632371  0.15967857235095834  1.0000
  O   O7        1.0  0.8468298394487526  0.3544963544789207  0.3103800901203886  1.0000
  O   O8        1.0  0.12644252726245347  0.6499598634545599  0.17539851630471087  1.0000
  O   O9        1.0  0.8898152395411701  0.10747619161810236  0.8667129998779175  1.0000
  O   O10       1.0  0.29342637771066193  0.5442558092029404  0.8341160184052953  1.0000
  O   O11       1.0  0.6182964060193734  0.2834887988926203  0.09056740667765846  1.0000
  O   O12       1.0  0.15471262022637222  0.760994337391621  0.536813934921353  1.0000
  O   O13       1.0  0.8023584864531911  0.739304154538656  0.3768106689019015  1.0000
  O   O14       1.0  0.9195121332289122  0.5144648664392397  0.6686864495357324  1.0000
  O   O15       1.0  0.45925636429240735  0.24246833328353168  0.8066738496798792  1.0000
  O   O16       1.0  0.6878224160522602  0.8674178686360562  0.6769973170283804  1.0000
data_image174
_chemical_formula_structural       Sn4W4O16
_chemical_formula_sum              "Sn4 W4 O16"
_cell_length_a       7.620549
_cell_length_b       7.620549
_cell_length_c       7.620549
_cell_angle_alpha    90.0
_cell_angle_beta     90.0
_cell_angle_gamma    90.0

_space_group_name_H-M_alt    "P 1"
_space_group_IT_number       1

loop_
  _space_group_symop_operation_xyz
  'x, y, z'

loop_
  _atom_site_type_symbol
  _atom_site_label
  _atom_site_symmetry_multiplicity
  _atom_site_fract_x
  _atom_site_fract_y
  _atom_site_fract_z
  _atom_site_occupancy
  Sn  Sn1       1.0  0.26071772310499325  0.8316105353149759  0.7882737294771894  1.0000
  Sn  Sn2       1.0  0.28540366018023744  0.3143301025975229  0.564422455228686  1.0000
  Sn  Sn3       1.0  0.5291450174802415  0.8873723807803107  0.2623599794073129  1.0000
  Sn  Sn4       1.0  0.9313455510509184  0.37726927535237736  0.05801648584480468  1.0000
  W   W1        1.0  0.4434980843318361  0.40345162772869  0.020038146491733418  1.0000
  W   W2        1.0  0.773455734110543  0.462483434104813  0.49930153334555166  1.0000
  W   W3        1.0  0.6216544697950486  0.07388325756660975  0.8061642827677029  1.0000
  W   W4        1.0  0.04164273558231568  0.8199379466295884  0.3417038453824726  1.0000
  O   O1        1.0  0.4608490351336579  0.9212942781040151  0.9967845245091305  1.0000
  O   O2        1.0  0.004968588074123675  0.03872988582604705  0.3604916743145876  1.0000
  O   O3        1.0  0.7601547679933595  0.22045350770516117  0.6460485915540307  1.0000
  O   O4        1.0  0.3402815076364165  0.2660739932543341  0.17539525880773169  1.0000
  O   O5        1.0  0.5306539236300676  0.416409764576172  0.44556934713599944  1.0000
  O   O6        1.0  0.4900788551113209  0.6136997231073912  0.15148346455206027  1.0000
  O   O7        1.0  0.9395081511028007  0.3786352583668522  0.33348409183681665  1.0000
  O   O8        1.0  0.043412585769641916  0.7561140625364177  0.12501432569158125  1.0000
  O   O9        1.0  0.8194920243860554  0.025884884317441792  0.9195039100205405  1.0000
  O   O10       1.0  0.33024060322830284  0.5215682591764588  0.8071898513280934  1.0000
  O   O11       1.0  0.683110559498178  0.27608421487300217  0.06054916401577111  1.0000
  O   O12       1.0  0.20703609876104978  0.7207035979852442  0.4901318641291097  1.0000
  O   O13       1.0  0.8081009911671303  0.744954835806371  0.3960163964586241  1.0000
  O   O14       1.0  0.858594233797737  0.5236527488670306  0.6976648149793265  1.0000
  O   O15       1.0  0.39216365824982  0.22108128857617185  0.8209961805162174  1.0000
  O   O16       1.0  0.4863219376552242  0.899565595029435  0.6929689929631696  1.0000
data_image175
_chemical_formula_structural       Sn4W4O16
_chemical_formula_sum              "Sn4 W4 O16"
_cell_length_a       7.620549
_cell_length_b       7.620549
_cell_length_c       7.620549
_cell_angle_alpha    90.0
_cell_angle_beta     90.0
_cell_angle_gamma    90.0

_space_group_name_H-M_alt    "P 1"
_space_group_IT_number       1

loop_
  _space_group_symop_operation_xyz
  'x, y, z'

loop_
  _atom_site_type_symbol
  _atom_site_label
  _atom_site_symmetry_multiplicity
  _atom_site_fract_x
  _atom_site_fract_y
  _atom_site_fract_z
  _atom_site_occupancy
  Sn  Sn1       1.0  0.2446633540886412  0.8610516420046727  0.8589550510494243  1.0000
  Sn  Sn2       1.0  0.27456290918164705  0.36863850603661225  0.5946309691431517  1.0000
  Sn  Sn3       1.0  0.4863224029384893  0.8795446858943591  0.2213021075750493  1.0000
  Sn  Sn4       1.0  0.9423593382027835  0.3376560635414912  0.04913866986547033  1.0000
  W   W1        1.0  0.4561870600057391  0.41640400750055995  0.06451127508763668  1.0000
  W   W2        1.0  0.7727302697510324  0.44554341557492316  0.5172634596773809  1.0000
  W   W3        1.0  0.6444464164586859  0.07141808726225965  0.7455340488011252  1.0000
  W   W4        1.0  0.025535149529369416  0.8103728489622005  0.3249616120739868  1.0000
  O   O1        1.0  0.4931099922010013  0.8840351153623646  0.9583303007632124  1.0000
  O   O2        1.0  0.9888253029713558  0.029346519177487436  0.21839549569515793  1.0000
  O   O3        1.0  0.7498784899110547  0.19628240109741996  0.5881432728352322  1.0000
  O   O4        1.0  0.3321118347507334  0.2850283474435542  0.21734999499610297  1.0000
  O   O5        1.0  0.5289113830831905  0.4318990442059101  0.48316181584296375  1.0000
  O   O6        1.0  0.5482507886688668  0.5912465751638826  0.18569893604712642  1.0000
  O   O7        1.0  0.928659883452211  0.4218079290797606  0.33883481166536994  1.0000
  O   O8        1.0  0.06803733068549309  0.6886861276389588  0.11133373368536806  1.0000
  O   O9        1.0  0.8446344153200627  0.9622130441816766  0.8662131489769085  1.0000
  O   O10       1.0  0.32983253160831916  0.5444077212827664  0.9131513850508404  1.0000
  O   O11       1.0  0.6669455144185545  0.3190421372601617  0.0376897891030464  1.0000
  O   O12       1.0  0.24703151499844234  0.7673502114848881  0.4199889152642419  1.0000
  O   O13       1.0  0.8440072009178534  0.7071454859957242  0.4300215070407614  1.0000
  O   O14       1.0  0.8480241597373849  0.4933420506015527  0.7398088110638927  1.0000
  O   O15       1.0  0.42918123640837813  0.2167058625500763  0.7897542070784994  1.0000
  O   O16       1.0  0.5336323285044561  0.9149706806720371  0.6197793970841424  1.0000
data_image176
_chemical_formula_structural       Sn4W4O16
_chemical_formula_sum              "Sn4 W4 O16"
_cell_length_a       7.620549
_cell_length_b       7.620549
_cell_length_c       7.620549
_cell_angle_alpha    90.0
_cell_angle_beta     90.0
_cell_angle_gamma    90.0

_space_group_name_H-M_alt    "P 1"
_space_group_IT_number       1

loop_
  _space_group_symop_operation_xyz
  'x, y, z'

loop_
  _atom_site_type_symbol
  _atom_site_label
  _atom_site_symmetry_multiplicity
  _atom_site_fract_x
  _atom_site_fract_y
  _atom_site_fract_z
  _atom_site_occupancy
  Sn  Sn1       1.0  0.20298489276522286  0.7865659676279246  0.8672440208786877  1.0000
  Sn  Sn2       1.0  0.3053882572203399  0.3807367470972394  0.6245540488046761  1.0000
  Sn  Sn3       1.0  0.48428646646672563  0.9246613326682742  0.20693314314131966  1.0000
  Sn  Sn4       1.0  0.0028931911790367163  0.3572808710253043  0.04870337915601164  1.0000
  W   W1        1.0  0.47429922859016715  0.43945959483715274  0.09096887110021964  1.0000
  W   W2        1.0  0.7633511378510298  0.4600326776656377  0.5629190862989885  1.0000
  W   W3        1.0  0.6253021103288684  0.020051265419254952  0.7130083849742743  1.0000
  W   W4        1.0  0.9937283280277784  0.806849231100101  0.28222425286798325  1.0000
  O   O1        1.0  0.4701924115002469  0.9129578282195496  0.8987263393208981  1.0000
  O   O2        1.0  0.9584485025334978  0.028327125449322605  0.35801959366611147  1.0000
  O   O3        1.0  0.7154261878975734  0.2021884403852255  0.5597052230496149  1.0000
  O   O4        1.0  0.3542045310368893  0.41857469163877337  0.2972294800312604  1.0000
  O   O5        1.0  0.5252427432445882  0.5229183311426444  0.5893241692350177  1.0000
  O   O6        1.0  0.6038620261988923  0.6608773858743452  0.11240417602267677  1.0000
  O   O7        1.0  0.8526179279786313  0.4245174174141342  0.34272236126865546  1.0000
  O   O8        1.0  0.038510691978491905  0.6720004634383132  0.048340084171854286  1.0000
  O   O9        1.0  0.8497792383803179  0.04337492108770681  0.8365095639013342  1.0000
  O   O10       1.0  0.3083575714159175  0.5057126854000084  0.8934299449356481  1.0000
  O   O11       1.0  0.6456829741211031  0.2861537005087098  0.0713623973643494  1.0000
  O   O12       1.0  0.22301355095944975  0.8097988949781415  0.32149820315020944  1.0000
  O   O13       1.0  0.9448472736301843  0.6573378844294538  0.4750177040876612  1.0000
  O   O14       1.0  0.9269927405705858  0.4504305915205255  0.7468790252349243  1.0000
  O   O15       1.0  0.4283341690657762  0.15498157108155677  0.7047167359054988  1.0000
  O   O16       1.0  0.6560339526921474  0.8664377582003291  0.5301882925129707  1.0000
data_image177
_chemical_formula_structural       Sn4W4O16
_chemical_formula_sum              "Sn4 W4 O16"
_cell_length_a       7.620549
_cell_length_b       7.620549
_cell_length_c       7.620549
_cell_angle_alpha    90.0
_cell_angle_beta     90.0
_cell_angle_gamma    90.0

_space_group_name_H-M_alt    "P 1"
_space_group_IT_number       1

loop_
  _space_group_symop_operation_xyz
  'x, y, z'

loop_
  _atom_site_type_symbol
  _atom_site_label
  _atom_site_symmetry_multiplicity
  _atom_site_fract_x
  _atom_site_fract_y
  _atom_site_fract_z
  _atom_site_occupancy
  Sn  Sn1       1.0  0.20116641697074403  0.8181279610568941  0.7617852187832794  1.0000
  Sn  Sn2       1.0  0.3536012482687565  0.3560123897654168  0.6149431557418993  1.0000
  Sn  Sn3       1.0  0.5772807297996099  0.9604209146059061  0.21294926556047675  1.0000
  Sn  Sn4       1.0  0.030327229600691872  0.3733283872650051  0.0008154331670686688  1.0000
  W   W1        1.0  0.4703589985773815  0.4830476322104495  0.1405363707844594  1.0000
  W   W2        1.0  0.7545731759251919  0.4653461042341869  0.5690367072477805  1.0000
  W   W3        1.0  0.577749841761519  0.9909909293032868  0.7266600925485398  1.0000
  W   W4        1.0  0.9911191590640479  0.7831058555380307  0.30086515266942987  1.0000
  O   O1        1.0  0.4538580172811172  0.8342987836644208  0.8672307365169529  1.0000
  O   O2        1.0  0.8649968122154787  0.9544954870551645  0.13611173777805963  1.0000
  O   O3        1.0  0.6404964565269862  0.23800773554287513  0.7103077131360701  1.0000
  O   O4        1.0  0.40480845390192655  0.349895534876868  0.33493209235089355  1.0000
  O   O5        1.0  0.5384865852666001  0.5524908966455256  0.6399398484064741  1.0000
  O   O6        1.0  0.6160092231348038  0.6842414922260827  0.1567463084789115  1.0000
  O   O7        1.0  0.7719414725744029  0.3417792509529244  0.3658395692489708  1.0000
  O   O8        1.0  0.9994865550452182  0.5799308124396442  0.1332646409064279  1.0000
  O   O9        1.0  0.759199026298442  0.9075214667172714  0.8223090020647497  1.0000
  O   O10       1.0  0.312384277987249  0.5159973280005621  0.9570754246424482  1.0000
  O   O11       1.0  0.6143819579244252  0.336709552378891  0.025024080561001836  1.0000
  O   O12       1.0  0.20920201694850538  0.8339778566787334  0.3469383291374743  1.0000
  O   O13       1.0  0.8981969317141987  0.6619531123995138  0.5153652172877483  1.0000
  O   O14       1.0  0.946982199807682  0.41325699027321916  0.7325243834732228  1.0000
  O   O15       1.0  0.34756806563097437  0.0958888696418806  0.6739539840361686  1.0000
  O   O16       1.0  0.6076065890004649  0.9147168551401582  0.5098378535638827  1.0000
data_image178
_chemical_formula_structural       Sn4W4O16
_chemical_formula_sum              "Sn4 W4 O16"
_cell_length_a       7.620549
_cell_length_b       7.620549
_cell_length_c       7.620549
_cell_angle_alpha    90.0
_cell_angle_beta     90.0
_cell_angle_gamma    90.0

_space_group_name_H-M_alt    "P 1"
_space_group_IT_number       1

loop_
  _space_group_symop_operation_xyz
  'x, y, z'

loop_
  _atom_site_type_symbol
  _atom_site_label
  _atom_site_symmetry_multiplicity
  _atom_site_fract_x
  _atom_site_fract_y
  _atom_site_fract_z
  _atom_site_occupancy
  Sn  Sn1       1.0  0.16470533345506866  0.838460333059098  0.7050314761313881  1.0000
  Sn  Sn2       1.0  0.35491731113701097  0.31604064402855014  0.5420970118676521  1.0000
  Sn  Sn3       1.0  0.6270402054127302  0.9495549968704887  0.23849740085256319  1.0000
  Sn  Sn4       1.0  0.04550050268513465  0.3241090711864842  0.0020873885724572716  1.0000
  W   W1        1.0  0.47210116818759046  0.5157909030350756  0.13958534815836848  1.0000
  W   W2        1.0  0.7565808550429814  0.4871330936854327  0.5876023980248556  1.0000
  W   W3        1.0  0.5914927815435187  0.9928782207203766  0.7387100059654312  1.0000
  W   W4        1.0  0.0010585324150231834  0.7471375887498914  0.29682289168596504  1.0000
  O   O1        1.0  0.44144246538899834  0.9038753534969793  0.9012490360335168  1.0000
  O   O2        1.0  0.8865352419387844  0.9011720543971389  0.13272318917561465  1.0000
  O   O3        1.0  0.5573631017578289  0.2401570316621504  0.7805040446846425  1.0000
  O   O4        1.0  0.36510973734954155  0.33964929041139125  0.2503286966085492  1.0000
  O   O5        1.0  0.5781644246997402  0.5620383187108011  0.7072960407253465  1.0000
  O   O6        1.0  0.4750587207284611  0.7277161547236134  0.24593251491041218  1.0000
  O   O7        1.0  0.6968498479385127  0.29426523292758655  0.4589415784117949  1.0000
  O   O8        1.0  0.9928950118421137  0.534849997727032  0.23652285697892916  1.0000
  O   O9        1.0  0.8158901464303597  0.912687752071176  0.7952849106874698  1.0000
  O   O10       1.0  0.3131427715867704  0.5106887731750845  0.9696922940795989  1.0000
  O   O11       1.0  0.7012415826773446  0.5263461660639657  0.08533175128053136  1.0000
  O   O12       1.0  0.1951340940231785  0.8152923404946103  0.41737887364388254  1.0000
  O   O13       1.0  0.8219799662383498  0.735970273536251  0.5011095666201568  1.0000
  O   O14       1.0  0.9194484274715284  0.441754403130905  0.7524625171591016  1.0000
  O   O15       1.0  0.19246396650725753  0.15187907104699422  0.6850403970961849  1.0000
  O   O16       1.0  0.5124410059465074  0.9513453293553396  0.5026910530374076  1.0000
data_image179
_chemical_formula_structural       Sn4W4O16
_chemical_formula_sum              "Sn4 W4 O16"
_cell_length_a       7.620549
_cell_length_b       7.620549
_cell_length_c       7.620549
_cell_angle_alpha    90.0
_cell_angle_beta     90.0
_cell_angle_gamma    90.0

_space_group_name_H-M_alt    "P 1"
_space_group_IT_number       1

loop_
  _space_group_symop_operation_xyz
  'x, y, z'

loop_
  _atom_site_type_symbol
  _atom_site_label
  _atom_site_symmetry_multiplicity
  _atom_site_fract_x
  _atom_site_fract_y
  _atom_site_fract_z
  _atom_site_occupancy
  Sn  Sn1       1.0  0.11754560636965748  0.8922420425985997  0.7463245752220153  1.0000
  Sn  Sn2       1.0  0.29124818133361674  0.316266651245889  0.5702020607382012  1.0000
  Sn  Sn3       1.0  0.5839590144319081  0.979784236458665  0.28763230600390804  1.0000
  Sn  Sn4       1.0  0.10912317934606185  0.2797614994294947  0.014212539179676797  1.0000
  W   W1        1.0  0.4494396072760611  0.4970949832729053  0.08263545272070637  1.0000
  W   W2        1.0  0.7849601085662155  0.49230954826292134  0.5888347059083432  1.0000
  W   W3        1.0  0.6223470147146507  0.004079161933531975  0.7658504970262394  1.0000
  W   W4        1.0  0.013563298610857588  0.7122693104181707  0.28053601607447276  1.0000
  O   O1        1.0  0.4515455868319714  0.9281581058895716  0.9331267428591663  1.0000
  O   O2        1.0  0.8660918078528483  0.9386753151516143  0.16652917875498785  1.0000
  O   O3        1.0  0.6549870435325  0.23447060514340187  0.7920562590587784  1.0000
  O   O4        1.0  0.38823546201668635  0.3323730771287907  0.2289434532947289  1.0000
  O   O5        1.0  0.5714391115203272  0.5925067097153147  0.6513827714947086  1.0000
  O   O6        1.0  0.4263047783556566  0.7138491527820221  0.21337424522763304  1.0000
  O   O7        1.0  0.7088929019334329  0.3222283525292753  0.40820393091534757  1.0000
  O   O8        1.0  0.09107190852257595  0.544210907564227  0.1160694263780916  1.0000
  O   O9        1.0  0.8427741361878133  0.9413746429724942  0.6903367998342862  1.0000
  O   O10       1.0  0.3148931296928372  0.4117472296437577  0.8893724397802228  1.0000
  O   O11       1.0  0.6701550562871322  0.49333255514741564  0.0654896837703721  1.0000
  O   O12       1.0  0.09801392962943023  0.8642623529960763  0.4583753741457466  1.0000
  O   O13       1.0  0.8039750885939515  0.6410122809621945  0.38308386796774146  1.0000
  O   O14       1.0  0.014505614328192529  0.5257312076341909  0.676844820263086  1.0000
  O   O15       1.0  0.13139145767577842  0.17399568094625595  0.7715700557098586  1.0000
  O   O16       1.0  0.5200257004929046  0.9995190079125041  0.549742679132337  1.0000
data_image180
_chemical_formula_structural       Sn4W4O16
_chemical_formula_sum              "Sn4 W4 O16"
_cell_length_a       7.620549
_cell_length_b       7.620549
_cell_length_c       7.620549
_cell_angle_alpha    90.0
_cell_angle_beta     90.0
_cell_angle_gamma    90.0

_space_group_name_H-M_alt    "P 1"
_space_group_IT_number       1

loop_
  _space_group_symop_operation_xyz
  'x, y, z'

loop_
  _atom_site_type_symbol
  _atom_site_label
  _atom_site_symmetry_multiplicity
  _atom_site_fract_x
  _atom_site_fract_y
  _atom_site_fract_z
  _atom_site_occupancy
  Sn  Sn1       1.0  0.1129491261692797  0.8333630865157376  0.7629866833202344  1.0000
  Sn  Sn2       1.0  0.3242691640491171  0.3562768967770576  0.5943066591698376  1.0000
  Sn  Sn3       1.0  0.5165293364215391  0.9850633482163835  0.2592471391647684  1.0000
  Sn  Sn4       1.0  0.09043852249727445  0.2609517714129336  0.9970652897907184  1.0000
  W   W1        1.0  0.45031617102491456  0.5025196488826496  0.051445383657302224  1.0000
  W   W2        1.0  0.7727810301303903  0.43192870350405727  0.6114946926254233  1.0000
  W   W3        1.0  0.6168731915473328  0.032765246567259536  0.7530824927140509  1.0000
  W   W4        1.0  0.023596277710937974  0.7620541176152239  0.30047883564243677  1.0000
  O   O1        1.0  0.5886736459212721  0.026811614398480677  0.9821689828803459  1.0000
  O   O2        1.0  0.8874906924788878  0.9653730900749099  0.24822713386943263  1.0000
  O   O3        1.0  0.7358368402433448  0.24625001591733073  0.7790229752974779  1.0000
  O   O4        1.0  0.3820676230325421  0.2369037731225241  0.07462029290213205  1.0000
  O   O5        1.0  0.6514685272683935  0.6114335369902891  0.6644475647907625  1.0000
  O   O6        1.0  0.5002866653142723  0.6913771426693557  0.18332591312826804  1.0000
  O   O7        1.0  0.6193000454914688  0.3272979425142566  0.43948329887942794  1.0000
  O   O8        1.0  0.14390401894109023  0.6831063420484921  0.10012513727233757  1.0000
  O   O9        1.0  0.8373176023818538  0.9020065299896505  0.7390593500359739  1.0000
  O   O10       1.0  0.35603008925343144  0.5313508659137268  0.8275516402375539  1.0000
  O   O11       1.0  0.6692233696760792  0.45840427594199856  0.07834890054050074  1.0000
  O   O12       1.0  0.1929105787159282  0.8070965108585321  0.4877956904287765  1.0000
  O   O13       1.0  0.8684093200810273  0.6310198317471382  0.41534871912379784  1.0000
  O   O14       1.0  0.022603459371217438  0.4238778055346314  0.6234009180884035  1.0000
  O   O15       1.0  0.1514030887115678  0.09741069635458355  0.7988323709397109  1.0000
  O   O16       1.0  0.4376036372798107  0.987930750156211  0.614264069454561  1.0000
data_image181
_chemical_formula_structural       Sn4W4O16
_chemical_formula_sum              "Sn4 W4 O16"
_cell_length_a       7.620549
_cell_length_b       7.620549
_cell_length_c       7.620549
_cell_angle_alpha    90.0
_cell_angle_beta     90.0
_cell_angle_gamma    90.0

_space_group_name_H-M_alt    "P 1"
_space_group_IT_number       1

loop_
  _space_group_symop_operation_xyz
  'x, y, z'

loop_
  _atom_site_type_symbol
  _atom_site_label
  _atom_site_symmetry_multiplicity
  _atom_site_fract_x
  _atom_site_fract_y
  _atom_site_fract_z
  _atom_site_occupancy
  Sn  Sn1       1.0  0.12471660153549623  0.7748186099338509  0.7924477091399996  1.0000
  Sn  Sn2       1.0  0.26777500513007246  0.35776365634768464  0.5529572765903278  1.0000
  Sn  Sn3       1.0  0.4747995886791134  0.014938518164675063  0.21339367486017166  1.0000
  Sn  Sn4       1.0  0.047439588630515096  0.30527084008293337  0.007514339440659157  1.0000
  W   W1        1.0  0.47319591344174605  0.5056352592646532  0.07105369540168317  1.0000
  W   W2        1.0  0.7849902966305573  0.43887476441715223  0.5796402020240323  1.0000
  W   W3        1.0  0.693690322157427  0.005106274438630904  0.763367723445283  1.0000
  W   W4        1.0  0.9793615136548249  0.7971116018428361  0.30708840996214126  1.0000
  O   O1        1.0  0.5870909624195608  0.8815608428728542  0.9509219237209254  1.0000
  O   O2        1.0  0.9497053687200959  0.006746138862828805  0.21233745879127053  1.0000
  O   O3        1.0  0.7862867653424145  0.23256849433876442  0.7676735213987922  1.0000
  O   O4        1.0  0.357974118963597  0.33293482450627665  0.24178623775814775  1.0000
  O   O5        1.0  0.6714012380503419  0.5675286548175726  0.7223081273204547  1.0000
  O   O6        1.0  0.47473538295020745  0.7177425351851827  0.19506989558034307  1.0000
  O   O7        1.0  0.6354579076197713  0.32941585386576444  0.45920140760925704  1.0000
  O   O8        1.0  0.056229953057715304  0.653116049138271  0.13758702227998257  1.0000
  O   O9        1.0  0.8371358811446943  0.8632645945387931  0.6347949204913125  1.0000
  O   O10       1.0  0.3820266434619834  0.46668118898697986  0.8540729921824121  1.0000
  O   O11       1.0  0.7024595935078386  0.4317753388876168  0.11221290414731913  1.0000
  O   O12       1.0  0.1668323439480104  0.7943532408487077  0.4883276567903628  1.0000
  O   O13       1.0  0.9094999571009718  0.5591881649678705  0.4179906737169542  1.0000
  O   O14       1.0  0.04259363870039534  0.39943485857214517  0.6876703419267097  1.0000
  O   O15       1.0  0.16994505263556345  0.04938962588761768  0.8770248688473009  1.0000
  O   O16       1.0  0.5170667580647312  0.009027379517073886  0.5946250741274498  1.0000
data_image182
_chemical_formula_structural       Sn4W4O16
_chemical_formula_sum              "Sn4 W4 O16"
_cell_length_a       7.620549
_cell_length_b       7.620549
_cell_length_c       7.620549
_cell_angle_alpha    90.0
_cell_angle_beta     90.0
_cell_angle_gamma    90.0

_space_group_name_H-M_alt    "P 1"
_space_group_IT_number       1

loop_
  _space_group_symop_operation_xyz
  'x, y, z'

loop_
  _atom_site_type_symbol
  _atom_site_label
  _atom_site_symmetry_multiplicity
  _atom_site_fract_x
  _atom_site_fract_y
  _atom_site_fract_z
  _atom_site_occupancy
  Sn  Sn1       1.0  0.15955038117821524  0.8283966175497615  0.8081153240532004  1.0000
  Sn  Sn2       1.0  0.27849050450576196  0.36004104726893754  0.5715630966174946  1.0000
  Sn  Sn3       1.0  0.43505968951201773  0.9846510564118226  0.18454190392932562  1.0000
  Sn  Sn4       1.0  0.024286676577365666  0.2365368595549034  0.9636228339414364  1.0000
  W   W1        1.0  0.46004756150678155  0.4980206811404624  0.08273926579458779  1.0000
  W   W2        1.0  0.7764187502927258  0.44819547612923144  0.6318157684020178  1.0000
  W   W3        1.0  0.7177638479849674  0.971000663690047  0.7335794718777228  1.0000
  W   W4        1.0  0.9870062348992047  0.7977692740880377  0.30747360158046155  1.0000
  O   O1        1.0  0.66902177482564  0.9259428039980617  0.9482076792369881  1.0000
  O   O2        1.0  0.8219370231428126  0.9623717916414797  0.35006100634180637  1.0000
  O   O3        1.0  0.7101352308552047  0.2302645366228233  0.7283276943536686  1.0000
  O   O4        1.0  0.25825801841248375  0.4074944857268019  0.12016045576134779  1.0000
  O   O5        1.0  0.761310910268208  0.6588276029932723  0.7545605156634148  1.0000
  O   O6        1.0  0.49486721001451817  0.712619036675717  0.1911953275145133  1.0000
  O   O7        1.0  0.5533739501978943  0.44155186515399103  0.5265856572558391  1.0000
  O   O8        1.0  0.060229792925209746  0.7863741180151874  0.05499523936081806  1.0000
  O   O9        1.0  0.9586033772237522  0.9687692833762137  0.6799995960838356  1.0000
  O   O10       1.0  0.4067363216535753  0.5824775771729951  0.8386622361292447  1.0000
  O   O11       1.0  0.676312713708932  0.3949788908807203  0.053659524719060075  1.0000
  O   O12       1.0  0.1815500760800668  0.856326445905183  0.4019273293223109  1.0000
  O   O13       1.0  0.8681268582960806  0.6038057073806103  0.3970696887277123  1.0000
  O   O14       1.0  0.03962404068964198  0.42147851881743426  0.6955750140063502  1.0000
  O   O15       1.0  0.2805791821135068  0.08283086045660737  0.8774414779832969  1.0000
  O   O16       1.0  0.5181101506802942  0.9308777321916297  0.6086880212502279  1.0000
data_image183
_chemical_formula_structural       Sn4W4O16
_chemical_formula_sum              "Sn4 W4 O16"
_cell_length_a       7.620549
_cell_length_b       7.620549
_cell_length_c       7.620549
_cell_angle_alpha    90.0
_cell_angle_beta     90.0
_cell_angle_gamma    90.0

_space_group_name_H-M_alt    "P 1"
_space_group_IT_number       1

loop_
  _space_group_symop_operation_xyz
  'x, y, z'

loop_
  _atom_site_type_symbol
  _atom_site_label
  _atom_site_symmetry_multiplicity
  _atom_site_fract_x
  _atom_site_fract_y
  _atom_site_fract_z
  _atom_site_occupancy
  Sn  Sn1       1.0  0.22182857925879956  0.8725602764839343  0.7647818509755957  1.0000
  Sn  Sn2       1.0  0.3320573020836797  0.4379756693140479  0.589042796931161  1.0000
  Sn  Sn3       1.0  0.43122627805714947  0.9108254680890101  0.21983801140283812  1.0000
  Sn  Sn4       1.0  0.9965653048774391  0.22041861924502135  0.9635451130084723  1.0000
  W   W1        1.0  0.42378181395828024  0.44409184045934313  0.02252778907116224  1.0000
  W   W2        1.0  0.7889911428324197  0.5088993751025979  0.6545922600964814  1.0000
  W   W3        1.0  0.7282777075499863  0.9740868533824704  0.7314704269765143  1.0000
  W   W4        1.0  0.9577776113753635  0.7877132281943103  0.3185100282946607  1.0000
  O   O1        1.0  0.6789558474261229  0.9533582751736427  0.964521819784947  1.0000
  O   O2        1.0  0.786136192472946  0.9068230706022523  0.41522020783143154  1.0000
  O   O3        1.0  0.7337044741636914  0.21451281599774696  0.7021931018104973  1.0000
  O   O4        1.0  0.2610576334871582  0.3033651077919761  0.10020674112963882  1.0000
  O   O5        1.0  0.7742196669844611  0.730170355123533  0.73792141098319  1.0000
  O   O6        1.0  0.4385896431578653  0.639390997025868  0.1675422214010025  1.0000
  O   O7        1.0  0.5758971692246064  0.499742710982205  0.5167444254245712  1.0000
  O   O8        1.0  0.9450025994979419  0.6974688230416374  0.08036258608293798  1.0000
  O   O9        1.0  0.990932174819948  0.03555413884731088  0.7810405926880364  1.0000
  O   O10       1.0  0.3580633874515237  0.5961290607052306  0.807660972278813  1.0000
  O   O11       1.0  0.6154766682446232  0.34693060044671775  0.012450333949760542  1.0000
  O   O12       1.0  0.1716504657323752  0.8543039141240995  0.35665025554240487  1.0000
  O   O13       1.0  0.9298628828478018  0.5845751718151501  0.4388066877306534  1.0000
  O   O14       1.0  0.03950349115798146  0.4165089507492401  0.7842952369367974  1.0000
  O   O15       1.0  0.3065285312857587  0.015474572884499318  0.974581677748372  1.0000
  O   O16       1.0  0.5100443147198566  0.9411680036415874  0.6495143618586164  1.0000
data_image184
_chemical_formula_structural       Sn4W4O16
_chemical_formula_sum              "Sn4 W4 O16"
_cell_length_a       7.620549
_cell_length_b       7.620549
_cell_length_c       7.620549
_cell_angle_alpha    90.0
_cell_angle_beta     90.0
_cell_angle_gamma    90.0

_space_group_name_H-M_alt    "P 1"
_space_group_IT_number       1

loop_
  _space_group_symop_operation_xyz
  'x, y, z'

loop_
  _atom_site_type_symbol
  _atom_site_label
  _atom_site_symmetry_multiplicity
  _atom_site_fract_x
  _atom_site_fract_y
  _atom_site_fract_z
  _atom_site_occupancy
  Sn  Sn1       1.0  0.23708549520223046  0.8297209933149352  0.7454828349553915  1.0000
  Sn  Sn2       1.0  0.3801775777018024  0.4862156635667201  0.5353372798860291  1.0000
  Sn  Sn3       1.0  0.4248471599534868  0.9476174442132466  0.1721380590875516  1.0000
  Sn  Sn4       1.0  0.9744496376879674  0.1857798551679854  0.01665760364644897  1.0000
  W   W1        1.0  0.43195328442735725  0.4678655281104523  0.03191265731401773  1.0000
  W   W2        1.0  0.8209839358049322  0.47643029684387705  0.6750139004005504  1.0000
  W   W3        1.0  0.7169878371683147  0.9832944035779112  0.7096348834981423  1.0000
  W   W4        1.0  0.9166314132590339  0.7728047377435052  0.34673277140344205  1.0000
  O   O1        1.0  0.6551451895077731  0.04078289882046571  0.9396933161850859  1.0000
  O   O2        1.0  0.7869386666291007  0.9502947957256613  0.44757276083151765  1.0000
  O   O3        1.0  0.7170844118872827  0.26393319102187024  0.6967616497580441  1.0000
  O   O4        1.0  0.2327004701285596  0.35550677758761684  0.06393797934886952  1.0000
  O   O5        1.0  0.7508801079612036  0.7148435117005836  0.7715599912351351  1.0000
  O   O6        1.0  0.4691871485411294  0.6385591946440008  0.2013432910462633  1.0000
  O   O7        1.0  0.6825821958377116  0.5745526740261768  0.46423427282010027  1.0000
  O   O8        1.0  0.8357035344142719  0.7261248220887019  0.12091662273296305  1.0000
  O   O9        1.0  0.9678032902963476  0.0023649955034824033  0.7372524590204386  1.0000
  O   O10       1.0  0.37617378475515895  0.5613006241278811  0.8274980545610293  1.0000
  O   O11       1.0  0.6297769011967362  0.30563929750463253  0.07062479049743856  1.0000
  O   O12       1.0  0.1260009430138469  0.8581361043887542  0.31785440500036166  1.0000
  O   O13       1.0  0.009107677818653404  0.5770105204925315  0.49459653194215314  1.0000
  O   O14       1.0  0.02911572945202967  0.4171507979653062  0.7811601299264411  1.0000
  O   O15       1.0  0.25845638505666635  0.902732671899218  0.9923491465646853  1.0000
  O   O16       1.0  0.4858008793975671  0.973950395089571  0.661405111733509  1.0000
data_image185
_chemical_formula_structural       Sn4W4O16
_chemical_formula_sum              "Sn4 W4 O16"
_cell_length_a       7.620549
_cell_length_b       7.620549
_cell_length_c       7.620549
_cell_angle_alpha    90.0
_cell_angle_beta     90.0
_cell_angle_gamma    90.0

_space_group_name_H-M_alt    "P 1"
_space_group_IT_number       1

loop_
  _space_group_symop_operation_xyz
  'x, y, z'

loop_
  _atom_site_type_symbol
  _atom_site_label
  _atom_site_symmetry_multiplicity
  _atom_site_fract_x
  _atom_site_fract_y
  _atom_site_fract_z
  _atom_site_occupancy
  Sn  Sn1       1.0  0.2009000619422969  0.8389257071321099  0.7055734259963602  1.0000
  Sn  Sn2       1.0  0.45308794103290917  0.45682192160249235  0.5388151092335748  1.0000
  Sn  Sn3       1.0  0.3933870591334962  0.9561893239933772  0.2135500634899305  1.0000
  Sn  Sn4       1.0  0.9809372508919917  0.19160822310562514  0.023264823676812485  1.0000
  W   W1        1.0  0.4408311137841495  0.5016578108952191  0.007939079298826153  1.0000
  W   W2        1.0  0.8231156499337924  0.47491763107078944  0.6554484221443948  1.0000
  W   W3        1.0  0.711338684603896  0.9529586333874165  0.7362940571316884  1.0000
  W   W4        1.0  0.8980875798575093  0.7629010291785389  0.369033504091464  1.0000
  O   O1        1.0  0.6750580711897283  0.0008701888977415972  0.9610880662208653  1.0000
  O   O2        1.0  0.7846115217380764  0.962064630647373  0.45789470508290897  1.0000
  O   O3        1.0  0.6654431234549981  0.27398284897436437  0.6360512966746069  1.0000
  O   O4        1.0  0.25994012708396746  0.3572902061340886  0.08242306396879272  1.0000
  O   O5        1.0  0.8504325811284773  0.7414327451340261  0.7870138790171078  1.0000
  O   O6        1.0  0.43796131268481653  0.651765744939206  0.18120602364630187  1.0000
  O   O7        1.0  0.7043949982104016  0.6157990098273248  0.44119997721767784  1.0000
  O   O8        1.0  0.8580485819171462  0.7455078440384201  0.13724854901045078  1.0000
  O   O9        1.0  0.9083714652057592  0.10869840437727855  0.7404434868199343  1.0000
  O   O10       1.0  0.45979467303991006  0.5956614911252656  0.7882292458365868  1.0000
  O   O11       1.0  0.6285426913099128  0.3575146754409748  0.023985766720193785  1.0000
  O   O12       1.0  0.13015265814757648  0.7743933606368009  0.37355313311604066  1.0000
  O   O13       1.0  0.9739772623513099  0.47325299028554235  0.4747186733868668  1.0000
  O   O14       1.0  0.9647083361179689  0.4122036516803765  0.8654775401064523  1.0000
  O   O15       1.0  0.299925091650923  0.029527419797556947  0.8859536444973235  1.0000
  O   O16       1.0  0.48299620532062476  0.9023210257221227  0.6129661214732931  1.0000
data_image186
_chemical_formula_structural       Sn4W4O16
_chemical_formula_sum              "Sn4 W4 O16"
_cell_length_a       7.620549
_cell_length_b       7.620549
_cell_length_c       7.620549
_cell_angle_alpha    90.0
_cell_angle_beta     90.0
_cell_angle_gamma    90.0

_space_group_name_H-M_alt    "P 1"
_space_group_IT_number       1

loop_
  _space_group_symop_operation_xyz
  'x, y, z'

loop_
  _atom_site_type_symbol
  _atom_site_label
  _atom_site_symmetry_multiplicity
  _atom_site_fract_x
  _atom_site_fract_y
  _atom_site_fract_z
  _atom_site_occupancy
  Sn  Sn1       1.0  0.2285224693669731  0.8625167773849174  0.7254695447560403  1.0000
  Sn  Sn2       1.0  0.4512328874635918  0.39761646005755835  0.5829857674317382  1.0000
  Sn  Sn3       1.0  0.3738395707787844  0.9401120572379371  0.1329632448948346  1.0000
  Sn  Sn4       1.0  0.008323189874088975  0.18699831388379318  0.047013043636106255  1.0000
  W   W1        1.0  0.4477627601421286  0.5176965152579202  0.01072243263120365  1.0000
  W   W2        1.0  0.8433159877849712  0.48494881869893197  0.6332469524641718  1.0000
  W   W3        1.0  0.6933331266455839  0.9841009413523149  0.7512119996361384  1.0000
  W   W4        1.0  0.8874892295602238  0.7338433003378716  0.35191193165068624  1.0000
  O   O1        1.0  0.6086329674078472  0.9477205555828179  0.9735627200452562  1.0000
  O   O2        1.0  0.8036711106906576  0.9561819105820667  0.48815844855958757  1.0000
  O   O3        1.0  0.6814107992794083  0.2817953389013552  0.6821697989790498  1.0000
  O   O4        1.0  0.32935537287231664  0.3461054598962494  0.10217087007845686  1.0000
  O   O5        1.0  0.7658799230442572  0.7314853608378142  0.7047758627306714  1.0000
  O   O6        1.0  0.3883704477331025  0.6686537729378459  0.18131169822893298  1.0000
  O   O7        1.0  0.6674960561449189  0.5401762002424482  0.4151265678975426  1.0000
  O   O8        1.0  0.990072393388045  0.7724971044846167  0.1573787202324774  1.0000
  O   O9        1.0  0.9246737814193977  0.04676312409156499  0.7895564220569131  1.0000
  O   O10       1.0  0.32448077465895625  0.6365227701331545  0.8245706764636983  1.0000
  O   O11       1.0  0.6649185907323552  0.5193620472971227  0.0130235164437578  1.0000
  O   O12       1.0  0.09505815133790874  0.7835941767241107  0.49377266866129116  1.0000
  O   O13       1.0  0.9943344400622306  0.5040165269746139  0.4498984326127716  1.0000
  O   O14       1.0  0.974315220703383  0.39267177094721356  0.8013564850090396  1.0000
  O   O15       1.0  0.18120248886789103  0.9918381586752476  0.9410201896110016  1.0000
  O   O16       1.0  0.4568659689667419  0.9733636633197038  0.6352811095673893  1.0000
data_image187
_chemical_formula_structural       Sn4W4O16
_chemical_formula_sum              "Sn4 W4 O16"
_cell_length_a       7.620549
_cell_length_b       7.620549
_cell_length_c       7.620549
_cell_angle_alpha    90.0
_cell_angle_beta     90.0
_cell_angle_gamma    90.0

_space_group_name_H-M_alt    "P 1"
_space_group_IT_number       1

loop_
  _space_group_symop_operation_xyz
  'x, y, z'

loop_
  _atom_site_type_symbol
  _atom_site_label
  _atom_site_symmetry_multiplicity
  _atom_site_fract_x
  _atom_site_fract_y
  _atom_site_fract_z
  _atom_site_occupancy
  Sn  Sn1       1.0  0.26677742597713755  0.8909184367752415  0.6892413112374113  1.0000
  Sn  Sn2       1.0  0.4281211237079028  0.3538818024628806  0.6142153203538819  1.0000
  Sn  Sn3       1.0  0.4336953900594703  0.9595454104237383  0.14016850897678604  1.0000
  Sn  Sn4       1.0  0.022396107699434738  0.17175289052902937  0.062062257568787915  1.0000
  W   W1        1.0  0.43119526960590326  0.56359985981055  0.0060757638991440115  1.0000
  W   W2        1.0  0.8371192013056472  0.46438116162732285  0.6417247651923462  1.0000
  W   W3        1.0  0.6854840015510958  0.9706493838205861  0.7296845459548063  1.0000
  W   W4        1.0  0.8793383688828533  0.7366090678235071  0.38381861564049524  1.0000
  O   O1        1.0  0.5403634008194491  0.8615332698643678  0.9013121371091453  1.0000
  O   O2        1.0  0.6859950580869926  0.8846722672421307  0.5030030019623388  1.0000
  O   O3        1.0  0.7990337308339687  0.21543730095109423  0.5817520613174818  1.0000
  O   O4        1.0  0.3231396169754771  0.3652854304852493  0.04347841161058384  1.0000
  O   O5        1.0  0.8329389505559952  0.720776998228673  0.6873584280041303  1.0000
  O   O6        1.0  0.3461124079415898  0.7023419477180467  0.1787882497413346  1.0000
  O   O7        1.0  0.6996802846063528  0.5169667215995984  0.42957558394864565  1.0000
  O   O8        1.0  0.9033149371277857  0.7683361571906885  0.1537640081658614  1.0000
  O   O9        1.0  0.8283090318861842  0.046474701254795185  0.9005124102062803  1.0000
  O   O10       1.0  0.2853443484696112  0.635401008375705  0.8037018560455964  1.0000
  O   O11       1.0  0.597411812391828  0.4263812332972922  0.7908416961677687  1.0000
  O   O12       1.0  0.07939296886621561  0.8673720843654901  0.5043651237087107  1.0000
  O   O13       1.0  0.009512096433447859  0.5230265482710842  0.4872532756233906  1.0000
  O   O14       1.0  0.0019520018166290232  0.3881975742224886  0.8078619707705487  1.0000
  O   O15       1.0  0.21947037714018905  0.018080464959318965  0.9388396520464568  1.0000
  O   O16       1.0  0.4554876976503461  0.055410000328828035  0.648966541269529  1.0000
data_image188
_chemical_formula_structural       Sn4W4O16
_chemical_formula_sum              "Sn4 W4 O16"
_cell_length_a       7.620549
_cell_length_b       7.620549
_cell_length_c       7.620549
_cell_angle_alpha    90.0
_cell_angle_beta     90.0
_cell_angle_gamma    90.0

_space_group_name_H-M_alt    "P 1"
_space_group_IT_number       1

loop_
  _space_group_symop_operation_xyz
  'x, y, z'

loop_
  _atom_site_type_symbol
  _atom_site_label
  _atom_site_symmetry_multiplicity
  _atom_site_fract_x
  _atom_site_fract_y
  _atom_site_fract_z
  _atom_site_occupancy
  Sn  Sn1       1.0  0.24155625568132025  0.8933941165954731  0.6940579333329823  1.0000
  Sn  Sn2       1.0  0.3607640883344785  0.356158843905733  0.6467480990765577  1.0000
  Sn  Sn3       1.0  0.4493146721482177  0.98190057488322  0.1264243430263422  1.0000
  Sn  Sn4       1.0  0.008880726741416663  0.19038823898580196  0.07823354765390689  1.0000
  W   W1        1.0  0.4363908619100201  0.566031592790658  0.9414155665842143  1.0000
  W   W2        1.0  0.8644534146253224  0.45324142162947995  0.6859021483857299  1.0000
  W   W3        1.0  0.7069140703266309  0.9583606244761096  0.7025520765983002  1.0000
  W   W4        1.0  0.8848741021685472  0.7436384478644068  0.3941349646230311  1.0000
  O   O1        1.0  0.4518265680774304  0.8042593540860327  0.8517157643780071  1.0000
  O   O2        1.0  0.7099926245180126  0.9049179196501802  0.39503166935026734  1.0000
  O   O3        1.0  0.8344554263042708  0.15582575010691724  0.6448779778239436  1.0000
  O   O4        1.0  0.3761925229147613  0.34464084841908926  0.04196427690504682  1.0000
  O   O5        1.0  0.8622701373371975  0.756060873219186  0.721891221107866  1.0000
  O   O6        1.0  0.409997331893313  0.6525676860523845  0.1749665095249653  1.0000
  O   O7        1.0  0.7208316402105004  0.5373047531199385  0.45318748087077193  1.0000
  O   O8        1.0  0.8878832389070498  0.7060809877051671  0.1725025890199327  1.0000
  O   O9        1.0  0.7234150306563734  0.018862096402577147  0.9597041357692571  1.0000
  O   O10       1.0  0.259925950107881  0.5831893143894497  0.7687427758713853  1.0000
  O   O11       1.0  0.6124944023916762  0.42992563486492014  0.7854959266068632  1.0000
  O   O12       1.0  0.1098898971242066  0.8495904328944927  0.4650169948372332  1.0000
  O   O13       1.0  0.04430562101015578  0.5340593464535834  0.5466939962292215  1.0000
  O   O14       1.0  0.9573413217224429  0.43692182756079895  0.9075959045282181  1.0000
  O   O15       1.0  0.17565383635156145  0.023087306922006973  0.9132022092867557  1.0000
  O   O16       1.0  0.44943864521352944  0.06149320658956525  0.6899546593624762  1.0000
data_image189
_chemical_formula_structural       Sn4W4O16
_chemical_formula_sum              "Sn4 W4 O16"
_cell_length_a       7.620549
_cell_length_b       7.620549
_cell_length_c       7.620549
_cell_angle_alpha    90.0
_cell_angle_beta     90.0
_cell_angle_gamma    90.0

_space_group_name_H-M_alt    "P 1"
_space_group_IT_number       1

loop_
  _space_group_symop_operation_xyz
  'x, y, z'

loop_
  _atom_site_type_symbol
  _atom_site_label
  _atom_site_symmetry_multiplicity
  _atom_site_fract_x
  _atom_site_fract_y
  _atom_site_fract_z
  _atom_site_occupancy
  Sn  Sn1       1.0  0.2325478083605741  0.9039919086917547  0.7066160351469222  1.0000
  Sn  Sn2       1.0  0.3516335174891656  0.3707326787080057  0.5300048798711459  1.0000
  Sn  Sn3       1.0  0.44438962112728725  0.9827068938756708  0.0995369476643091  1.0000
  Sn  Sn4       1.0  0.9893338250069723  0.20486142237305752  0.0655996713412641  1.0000
  W   W1        1.0  0.4552656879898385  0.5556010982193023  0.9485184201453619  1.0000
  W   W2        1.0  0.8571710719754332  0.40268023020983973  0.6668421713505092  1.0000
  W   W3        1.0  0.6901297421598911  0.9894099801417469  0.7346060852850667  1.0000
  W   W4        1.0  0.8974868959970624  0.7360156053271432  0.44896573302812665  1.0000
  O   O1        1.0  0.490084434735432  0.8399194104967314  0.8949499230410899  1.0000
  O   O2        1.0  0.7262268084562112  0.8781034539687368  0.3776413271951242  1.0000
  O   O3        1.0  0.8291258836043764  0.13803384964569046  0.6158842697968888  1.0000
  O   O4        1.0  0.3863850460403762  0.33168109696822823  0.075658729768939  1.0000
  O   O5        1.0  0.775300429298375  0.7636468417213798  0.7031339250988857  1.0000
  O   O6        1.0  0.5678125273070402  0.6405613277579528  0.13709550989459682  1.0000
  O   O7        1.0  0.6636370299218002  0.45112453103741623  0.5125834917215403  1.0000
  O   O8        1.0  0.01517745969844913  0.7253780562260361  0.23936233396852777  1.0000
  O   O9        1.0  0.7327877370127233  0.132989549640562  0.954445831509736  1.0000
  O   O10       1.0  0.24815100736040718  0.6132974222913802  0.8232864930550077  1.0000
  O   O11       1.0  0.6648587734214861  0.5096165733406322  0.8330874114285001  1.0000
  O   O12       1.0  0.052484086386917594  0.9281374694277743  0.5370201437212273  1.0000
  O   O13       1.0  0.028443101992416953  0.5382521534280214  0.5182973249027236  1.0000
  O   O14       1.0  0.002662413958385068  0.34788536238165413  0.845711528381965  1.0000
  O   O15       1.0  0.2089802305302244  0.0272451518679691  0.9800583287170184  1.0000
  O   O16       1.0  0.42451293462301026  0.08680937289591117  0.6592933814654508  1.0000
data_image190
_chemical_formula_structural       Sn4W4O16
_chemical_formula_sum              "Sn4 W4 O16"
_cell_length_a       7.620549
_cell_length_b       7.620549
_cell_length_c       7.620549
_cell_angle_alpha    90.0
_cell_angle_beta     90.0
_cell_angle_gamma    90.0

_space_group_name_H-M_alt    "P 1"
_space_group_IT_number       1

loop_
  _space_group_symop_operation_xyz
  'x, y, z'

loop_
  _atom_site_type_symbol
  _atom_site_label
  _atom_site_symmetry_multiplicity
  _atom_site_fract_x
  _atom_site_fract_y
  _atom_site_fract_z
  _atom_site_occupancy
  Sn  Sn1       1.0  0.2637694491744158  0.9041117074161255  0.7694459815805854  1.0000
  Sn  Sn2       1.0  0.3907494903943216  0.3959255223055189  0.528575179097588  1.0000
  Sn  Sn3       1.0  0.468483307913241  0.9731042093543891  0.14425201445062913  1.0000
  Sn  Sn4       1.0  0.9422578003469574  0.16615660005733915  0.08129350604763941  1.0000
  W   W1        1.0  0.4668271838723192  0.5656205309127003  0.9415585525757514  1.0000
  W   W2        1.0  0.7819128414201139  0.38877449932059643  0.6361127768326597  1.0000
  W   W3        1.0  0.7038460245779  0.994702457369064  0.7112380139214146  1.0000
  W   W4        1.0  0.9221154558615299  0.7553915689353216  0.4577261711861039  1.0000
  O   O1        1.0  0.5307646784496045  0.808422435713558  0.8430984642956296  1.0000
  O   O2        1.0  0.715412139336884  0.8955078468026995  0.46405208162568434  1.0000
  O   O3        1.0  0.8056067154936011  0.19068384701190733  0.5321882209629141  1.0000
  O   O4        1.0  0.32810257890541256  0.39746851084063817  0.02161456073499188  1.0000
  O   O5        1.0  0.8017298299212338  0.7595737823379293  0.7165669168714184  1.0000
  O   O6        1.0  0.47317087921537326  0.7238329548417471  0.09557392598543298  1.0000
  O   O7        1.0  0.6154069686965338  0.5270291941982583  0.46121904422129556  1.0000
  O   O8        1.0  0.007581314900720332  0.7146668186641306  0.23953758994865854  1.0000
  O   O9        1.0  0.7630775654308463  0.01205166309642493  0.9566878059189327  1.0000
  O   O10       1.0  0.3255311724845203  0.6055649540627565  0.7270817281123464  1.0000
  O   O11       1.0  0.6383001976125835  0.46725463701527725  0.8158766547574895  1.0000
  O   O12       1.0  0.12330084030169242  0.8811372610399455  0.5251576946551834  1.0000
  O   O13       1.0  0.9671955824145815  0.5170527519148047  0.5323889334587498  1.0000
  O   O14       1.0  0.9336066714712549  0.3060029137528052  0.8257237460619972  1.0000
  O   O15       1.0  0.26131893755808067  0.01353796766934958  0.9956137558220686  1.0000
  O   O16       1.0  0.45186374934980894  0.040236423121231324  0.6432983070702359  1.0000
data_image191
_chemical_formula_structural       Sn4W4O16
_chemical_formula_sum              "Sn4 W4 O16"
_cell_length_a       7.620549
_cell_length_b       7.620549
_cell_length_c       7.620549
_cell_angle_alpha    90.0
_cell_angle_beta     90.0
_cell_angle_gamma    90.0

_space_group_name_H-M_alt    "P 1"
_space_group_IT_number       1

loop_
  _space_group_symop_operation_xyz
  'x, y, z'

loop_
  _atom_site_type_symbol
  _atom_site_label
  _atom_site_symmetry_multiplicity
  _atom_site_fract_x
  _atom_site_fract_y
  _atom_site_fract_z
  _atom_site_occupancy
  Sn  Sn1       1.0  0.2991134593572088  0.9178885205469643  0.7161432199012747  1.0000
  Sn  Sn2       1.0  0.33779396896873615  0.41599337985449175  0.5012484994424741  1.0000
  Sn  Sn3       1.0  0.518780233094626  0.0016358930072895017  0.18205679656384532  1.0000
  Sn  Sn4       1.0  0.004028519315249991  0.1490029346405836  0.07900834135781931  1.0000
  W   W1        1.0  0.3997614664438648  0.5932618077487793  0.972039194573506  1.0000
  W   W2        1.0  0.7794347445943209  0.3914535774921877  0.6646985909109223  1.0000
  W   W3        1.0  0.7055197959493829  0.9299904658989104  0.7158160630692456  1.0000
  W   W4        1.0  0.9524210817191946  0.7419699569615132  0.42280983725284016  1.0000
  O   O1        1.0  0.5099584004858521  0.8024597124258256  0.8095960083929282  1.0000
  O   O2        1.0  0.7112910617426536  0.7938189798817992  0.48210731518820227  1.0000
  O   O3        1.0  0.838522667659612  0.2089788514951065  0.5220824285995461  1.0000
  O   O4        1.0  0.3707878949734383  0.37733176393588774  0.071730308448851  1.0000
  O   O5        1.0  0.8794504609961142  0.7811693915311827  0.7709223401380958  1.0000
  O   O6        1.0  0.3851968614573207  0.7542777565921401  0.14231386232863416  1.0000
  O   O7        1.0  0.5920835488874826  0.4435274532245719  0.4577740516952375  1.0000
  O   O8        1.0  0.9305943254654163  0.832234184643941  0.21566613593291392  1.0000
  O   O9        1.0  0.7351201618236033  0.08664470084329455  0.9173549232916071  1.0000
  O   O10       1.0  0.23496048902704558  0.643016668271107  0.833174519213817  1.0000
  O   O11       1.0  0.5785641599551069  0.44319053579468976  0.8184409117778273  1.0000
  O   O12       1.0  0.15445502817106682  0.8717458740441032  0.5015932953276354  1.0000
  O   O13       1.0  0.9060084675838584  0.5218156853338851  0.4852801716816357  1.0000
  O   O14       1.0  0.9631809140711025  0.38057151504831394  0.8173811999716448  1.0000
  O   O15       1.0  0.18515804111484002  0.02505196022824514  0.9196108189305751  1.0000
  O   O16       1.0  0.4856556970083508  0.11440431243285532  0.6219502739761543  1.0000
data_image192
_chemical_formula_structural       Sn4W4O16
_chemical_formula_sum              "Sn4 W4 O16"
_cell_length_a       7.620549
_cell_length_b       7.620549
_cell_length_c       7.620549
_cell_angle_alpha    90.0
_cell_angle_beta     90.0
_cell_angle_gamma    90.0

_space_group_name_H-M_alt    "P 1"
_space_group_IT_number       1

loop_
  _space_group_symop_operation_xyz
  'x, y, z'

loop_
  _atom_site_type_symbol
  _atom_site_label
  _atom_site_symmetry_multiplicity
  _atom_site_fract_x
  _atom_site_fract_y
  _atom_site_fract_z
  _atom_site_occupancy
  Sn  Sn1       1.0  0.2207139611884378  0.9720837602119871  0.6802428236068627  1.0000
  Sn  Sn2       1.0  0.31980008493370726  0.4156099266360751  0.5230280417678573  1.0000
  Sn  Sn3       1.0  0.5498811385514342  0.020446215037195792  0.2118686984631586  1.0000
  Sn  Sn4       1.0  0.035464767151553216  0.12914886908977066  0.042865579779859386  1.0000
  W   W1        1.0  0.44269488178809807  0.5531647683745958  0.005248473868089683  1.0000
  W   W2        1.0  0.7612849822459025  0.36157511022291006  0.6826002426145408  1.0000
  W   W3        1.0  0.6946252174273683  0.9297178324246367  0.6809914991823978  1.0000
  W   W4        1.0  0.9347417633914838  0.7585998897509024  0.40882798477126175  1.0000
  O   O1        1.0  0.5428143303035673  0.7567600415581703  0.7392160342389686  1.0000
  O   O2        1.0  0.7392072021752014  0.9313551899151695  0.41054350231559433  1.0000
  O   O3        1.0  0.8937346690377347  0.14539307263752307  0.736798799541145  1.0000
  O   O4        1.0  0.3099983574435339  0.4699330130406787  0.19202720444435367  1.0000
  O   O5        1.0  0.9168192005771582  0.8477578316199961  0.7179306630951723  1.0000
  O   O6        1.0  0.5784866607174304  0.705781856654215  0.097644764798982  1.0000
  O   O7        1.0  0.5831611152264708  0.49696401262029455  0.5521317899032122  1.0000
  O   O8        1.0  0.939192745056397  0.7730528582291631  0.18481394167860835  1.0000
  O   O9        1.0  0.733245754903028  0.9896044710582785  0.029171175576780405  1.0000
  O   O10       1.0  0.2984084665113508  0.6624313759320072  0.8790817597873821  1.0000
  O   O11       1.0  0.5508812489217128  0.3758083969657407  0.8598239272616501  1.0000
  O   O12       1.0  0.18558691594169252  0.8268841537001415  0.41412915940130784  1.0000
  O   O13       1.0  0.911024299085611  0.5083866277204198  0.46988441592833996  1.0000
  O   O14       1.0  0.8848570605212677  0.5378000269632013  0.7857878792581665  1.0000
  O   O15       1.0  0.17740932364083495  0.18328373755135108  0.8218477682558957  1.0000
  O   O16       1.0  0.49185855901828485  0.08223556286001088  0.6105968137037657  1.0000
data_image193
_chemical_formula_structural       Sn4W4O16
_chemical_formula_sum              "Sn4 W4 O16"
_cell_length_a       7.620549
_cell_length_b       7.620549
_cell_length_c       7.620549
_cell_angle_alpha    90.0
_cell_angle_beta     90.0
_cell_angle_gamma    90.0

_space_group_name_H-M_alt    "P 1"
_space_group_IT_number       1

loop_
  _space_group_symop_operation_xyz
  'x, y, z'

loop_
  _atom_site_type_symbol
  _atom_site_label
  _atom_site_symmetry_multiplicity
  _atom_site_fract_x
  _atom_site_fract_y
  _atom_site_fract_z
  _atom_site_occupancy
  Sn  Sn1       1.0  0.22058296077971432  0.9013791441652905  0.7094300474469077  1.0000
  Sn  Sn2       1.0  0.3367985242692304  0.40285056583290507  0.5377567075517294  1.0000
  Sn  Sn3       1.0  0.5602585318564832  0.011116952846048633  0.1838974462173048  1.0000
  Sn  Sn4       1.0  0.025480192671392454  0.10394914250205779  0.9782737693932114  1.0000
  W   W1        1.0  0.43730178692606575  0.5306198256942675  0.05724174409435808  1.0000
  W   W2        1.0  0.7464472990677984  0.45173874605815867  0.6916335817076417  1.0000
  W   W3        1.0  0.7020252750670406  0.9774711464741491  0.711866400723628  1.0000
  W   W4        1.0  0.9537859359358124  0.7554150108574542  0.3657172829610218  1.0000
  O   O1        1.0  0.6238873135662684  0.7422525789143268  0.7717665722719804  1.0000
  O   O2        1.0  0.7609939817132774  0.873568413235559  0.3458732971916727  1.0000
  O   O3        1.0  0.7910116306922613  0.20068849969568298  0.6070435982296272  1.0000
  O   O4        1.0  0.2696278096811283  0.37576346298637175  0.17008788312862305  1.0000
  O   O5        1.0  0.9168389668969695  0.8778175653219275  0.6938151446076984  1.0000
  O   O6        1.0  0.5194890521430156  0.7414616814557358  0.1415175989396186  1.0000
  O   O7        1.0  0.5690038814849927  0.3350672184525916  0.5173122172513249  1.0000
  O   O8        1.0  0.9734898743952889  0.732552498014589  0.13222971816720963  1.0000
  O   O9        1.0  0.674156606737838  0.09673801452541259  0.9404041383370162  1.0000
  O   O10       1.0  0.24841406167321067  0.5956118807429124  0.9337200882077928  1.0000
  O   O11       1.0  0.5060758068879314  0.41407810203106227  0.8208627044535366  1.0000
  O   O12       1.0  0.15657523193693557  0.8527363098742277  0.46002193588408624  1.0000
  O   O13       1.0  0.9060526525159187  0.55263976083957  0.532462627380526  1.0000
  O   O14       1.0  0.89738763627785  0.40839897377507123  0.8773942817769459  1.0000
  O   O15       1.0  0.2245462004577619  0.14938374147490222  0.7708080059128537  1.0000
  O   O16       1.0  0.4931761752356456  0.94216294140375  0.5874363379429002  1.0000
data_image194
_chemical_formula_structural       Sn4W4O16
_chemical_formula_sum              "Sn4 W4 O16"
_cell_length_a       7.620549
_cell_length_b       7.620549
_cell_length_c       7.620549
_cell_angle_alpha    90.0
_cell_angle_beta     90.0
_cell_angle_gamma    90.0

_space_group_name_H-M_alt    "P 1"
_space_group_IT_number       1

loop_
  _space_group_symop_operation_xyz
  'x, y, z'

loop_
  _atom_site_type_symbol
  _atom_site_label
  _atom_site_symmetry_multiplicity
  _atom_site_fract_x
  _atom_site_fract_y
  _atom_site_fract_z
  _atom_site_occupancy
  Sn  Sn1       1.0  0.2719124645365933  0.8333359730685368  0.6825347277757781  1.0000
  Sn  Sn2       1.0  0.30733846125324615  0.40596700716903383  0.5622327157363626  1.0000
  Sn  Sn3       1.0  0.567362408827242  0.013627009014416158  0.203425933357918  1.0000
  Sn  Sn4       1.0  0.04493855503413676  0.12772150754121314  0.9584163323457058  1.0000
  W   W1        1.0  0.3938831763070336  0.563079061533019  0.03867622962181582  1.0000
  W   W2        1.0  0.7306862302437618  0.4544929469261132  0.7037000064261556  1.0000
  W   W3        1.0  0.6972100290363226  0.9699557749490044  0.7206065768259793  1.0000
  W   W4        1.0  0.965380031617038  0.7478802367820802  0.360697321034654  1.0000
  O   O1        1.0  0.701194435471956  0.7450114210069794  0.7738779859046998  1.0000
  O   O2        1.0  0.8219770221066851  0.9415201785570315  0.3230522596717864  1.0000
  O   O3        1.0  0.7112337198492588  0.21890611813931393  0.6016815667593323  1.0000
  O   O4        1.0  0.37179500212538  0.4122672485824499  0.2580820786016493  1.0000
  O   O5        1.0  0.9232208344030214  0.9436548543691138  0.8500085728458348  1.0000
  O   O6        1.0  0.5224009214793952  0.7637998694493086  0.08585352103927257  1.0000
  O   O7        1.0  0.5520981733777236  0.4985069958474667  0.5605387162519451  1.0000
  O   O8        1.0  0.9626658749268029  0.667787433555028  0.15691870883870163  1.0000
  O   O9        1.0  0.6089193377165083  0.05057454431372863  0.9239894346132804  1.0000
  O   O10       1.0  0.21632354893801725  0.535708427144379  0.8449385876161852  1.0000
  O   O11       1.0  0.5713151287525097  0.42345501130683455  0.9067126518571944  1.0000
  O   O12       1.0  0.19622707968043906  0.799433747184471  0.4522147202596186  1.0000
  O   O13       1.0  0.8723193483154159  0.5684875793840551  0.4897180958073394  1.0000
  O   O14       1.0  0.9786380280353717  0.3707139848818398  0.7506013134276159  1.0000
  O   O15       1.0  0.24416226794733345  0.08334515024355724  0.8007222924312248  1.0000
  O   O16       1.0  0.5134922332796541  0.9121057424613833  0.5679582377147129  1.0000
data_image195
_chemical_formula_structural       Sn4W4O16
_chemical_formula_sum              "Sn4 W4 O16"
_cell_length_a       7.620549
_cell_length_b       7.620549
_cell_length_c       7.620549
_cell_angle_alpha    90.0
_cell_angle_beta     90.0
_cell_angle_gamma    90.0

_space_group_name_H-M_alt    "P 1"
_space_group_IT_number       1

loop_
  _space_group_symop_operation_xyz
  'x, y, z'

loop_
  _atom_site_type_symbol
  _atom_site_label
  _atom_site_symmetry_multiplicity
  _atom_site_fract_x
  _atom_site_fract_y
  _atom_site_fract_z
  _atom_site_occupancy
  Sn  Sn1       1.0  0.2966069461105549  0.8574688474540236  0.6679803321734049  1.0000
  Sn  Sn2       1.0  0.27596938421223705  0.356308470728676  0.5965098494787264  1.0000
  Sn  Sn3       1.0  0.5714554901078319  0.9881255318131613  0.2201411023101613  1.0000
  Sn  Sn4       1.0  0.06404549073665884  0.14306840348609987  0.9274038704950146  1.0000
  W   W1        1.0  0.38153904390698357  0.5379673346556954  0.06409413712374566  1.0000
  W   W2        1.0  0.732846349934436  0.482095767319316  0.7108417175506473  1.0000
  W   W3        1.0  0.7245272440050888  0.9949714357060515  0.7053654689934283  1.0000
  W   W4        1.0  0.9500107167090843  0.746374834468911  0.339361539733441  1.0000
  O   O1        1.0  0.7416965054168475  0.6998926367277115  0.8022722517109446  1.0000
  O   O2        1.0  0.8177445842405121  0.9175080470329604  0.27908665077659944  1.0000
  O   O3        1.0  0.6475377966230664  0.2224665444583456  0.7022888134224515  1.0000
  O   O4        1.0  0.2887764129109521  0.410840051093335  0.23555249980812254  1.0000
  O   O5        1.0  0.9225213138787981  0.05720815558751435  0.5876685724840911  1.0000
  O   O6        1.0  0.36707319333019117  0.7764957048300605  0.10120859760906449  1.0000
  O   O7        1.0  0.5143798101409884  0.5217402493311346  0.6222853839269434  1.0000
  O   O8        1.0  0.9721406661659356  0.6268809521425928  0.13203356213547493  1.0000
  O   O9        1.0  0.7106865894601155  0.9747209600127231  0.9450172906688009  1.0000
  O   O10       1.0  0.2436155097522063  0.5119899582145817  0.8703800742155774  1.0000
  O   O11       1.0  0.5788118114754738  0.4419236862408418  0.9846197468742371  1.0000
  O   O12       1.0  0.15785760286248296  0.8317350284656448  0.44049064431832385  1.0000
  O   O13       1.0  0.8672513140919733  0.561996448520393  0.4995314856414847  1.0000
  O   O14       1.0  0.9053246217021346  0.3671102689675256  0.8485252731311409  1.0000
  O   O15       1.0  0.28449701197044247  0.10428757118988455  0.7727276372658605  1.0000
  O   O16       1.0  0.5783040914417438  0.8985297511201137  0.5476933669121965  1.0000
data_image196
_chemical_formula_structural       Sn4W4O16
_chemical_formula_sum              "Sn4 W4 O16"
_cell_length_a       7.620549
_cell_length_b       7.620549
_cell_length_c       7.620549
_cell_angle_alpha    90.0
_cell_angle_beta     90.0
_cell_angle_gamma    90.0

_space_group_name_H-M_alt    "P 1"
_space_group_IT_number       1

loop_
  _space_group_symop_operation_xyz
  'x, y, z'

loop_
  _atom_site_type_symbol
  _atom_site_label
  _atom_site_symmetry_multiplicity
  _atom_site_fract_x
  _atom_site_fract_y
  _atom_site_fract_z
  _atom_site_occupancy
  Sn  Sn1       1.0  0.2947774668293524  0.846423474624165  0.6464646938339154  1.0000
  Sn  Sn2       1.0  0.2979340820583254  0.36628767428546494  0.6100594416796079  1.0000
  Sn  Sn3       1.0  0.5688900052848254  0.9800620392745771  0.22479202658312206  1.0000
  Sn  Sn4       1.0  0.025390508428459063  0.12160205238708738  0.9486144972013494  1.0000
  W   W1        1.0  0.3678876010755055  0.5382800145279965  0.06945096593504017  1.0000
  W   W2        1.0  0.709961976926896  0.5067344306297812  0.7251262569909458  1.0000
  W   W3        1.0  0.7358226609041275  0.013162836180639306  0.7155900457206882  1.0000
  W   W4        1.0  0.9731650460545819  0.7302617736850909  0.3350494562329279  1.0000
  O   O1        1.0  0.7362868811295932  0.7387813678155736  0.7854908511147819  1.0000
  O   O2        1.0  0.81833952910137  0.8848461758637237  0.24565944598106748  1.0000
  O   O3        1.0  0.6767143469297939  0.21188499270911756  0.5488264714959713  1.0000
  O   O4        1.0  0.41678096882212834  0.4088150851879333  0.257736708411312  1.0000
  O   O5        1.0  0.9613987175322656  0.9662667061577157  0.6342830056051652  1.0000
  O   O6        1.0  0.43566379260598564  0.7636525826573272  0.04455037651431406  1.0000
  O   O7        1.0  0.511939586281762  0.5344424270119348  0.6030046100643157  1.0000
  O   O8        1.0  0.030404668015060577  0.5952028820951161  0.14885402481615242  1.0000
  O   O9        1.0  0.7147350740381186  0.09204516671236196  0.9439322947269091  1.0000
  O   O10       1.0  0.2104169215490869  0.39208241681889355  0.938045214312328  1.0000
  O   O11       1.0  0.5589105470126804  0.4450679791328023  0.9072698289772931  1.0000
  O   O12       1.0  0.20318374986130472  0.7748360843280614  0.40369949132727523  1.0000
  O   O13       1.0  0.8103435955413242  0.624355811953087  0.48196468155484684  1.0000
  O   O14       1.0  0.9048143198403005  0.3694287152237401  0.7275004631940498  1.0000
  O   O15       1.0  0.23873791812394032  0.1340206061748872  0.7472651043364223  1.0000
  O   O16       1.0  0.557516251991417  0.9253797873698902  0.5097152471440766  1.0000
data_image197
_chemical_formula_structural       Sn4W4O16
_chemical_formula_sum              "Sn4 W4 O16"
_cell_length_a       7.620549
_cell_length_b       7.620549
_cell_length_c       7.620549
_cell_angle_alpha    90.0
_cell_angle_beta     90.0
_cell_angle_gamma    90.0

_space_group_name_H-M_alt    "P 1"
_space_group_IT_number       1

loop_
  _space_group_symop_operation_xyz
  'x, y, z'

loop_
  _atom_site_type_symbol
  _atom_site_label
  _atom_site_symmetry_multiplicity
  _atom_site_fract_x
  _atom_site_fract_y
  _atom_site_fract_z
  _atom_site_occupancy
  Sn  Sn1       1.0  0.27897467247259544  0.8249455291457924  0.6921854654167353  1.0000
  Sn  Sn2       1.0  0.2818953984444712  0.3471606030826773  0.6389971568795029  1.0000
  Sn  Sn3       1.0  0.5916278574639064  0.9574579875651014  0.21669178764617955  1.0000
  Sn  Sn4       1.0  0.055125769007195555  0.17099921731315307  0.9610899274410348  1.0000
  W   W1        1.0  0.37655267047175234  0.5452931227427669  0.033073969140011476  1.0000
  W   W2        1.0  0.7322888045613538  0.5150447918284254  0.7261669133973829  1.0000
  W   W3        1.0  0.675683365184208  0.0156396327726465  0.6829162601954514  1.0000
  W   W4        1.0  0.9903372634091738  0.7182267300068313  0.33715066820384004  1.0000
  O   O1        1.0  0.7228817520953957  0.7411169260190102  0.7942118991199166  1.0000
  O   O2        1.0  0.8319289550460558  0.8709350533321631  0.2833366139350424  1.0000
  O   O3        1.0  0.6282807497151223  0.2617125894820479  0.6268691347498805  1.0000
  O   O4        1.0  0.3968295260013224  0.45774159432769035  0.24064691813557754  1.0000
  O   O5        1.0  0.8728977147417789  0.9550264571231561  0.5780696416163786  1.0000
  O   O6        1.0  0.4088996391102713  0.7803158266984884  0.999340353964574  1.0000
  O   O7        1.0  0.4840938205681835  0.5233967380942997  0.6148774125388802  1.0000
  O   O8        1.0  0.11008031592378958  0.5840365397565414  0.1862969317911275  1.0000
  O   O9        1.0  0.7970960513788298  0.06062062850515795  0.8959148326099544  1.0000
  O   O10       1.0  0.1896410916550396  0.39815035322004183  0.8967389382058396  1.0000
  O   O11       1.0  0.5785812588823829  0.4617218133350189  0.9469408186877291  1.0000
  O   O12       1.0  0.17990485006656276  0.8450251906591492  0.4292830209213161  1.0000
  O   O13       1.0  0.8982464484893309  0.5359310168145296  0.48703949039329364  1.0000
  O   O14       1.0  0.8871261774771788  0.41265301302836765  0.8560556226254349  1.0000
  O   O15       1.0  0.2506527712820548  0.09517622585838877  0.7995544998746598  1.0000
  O   O16       1.0  0.52488450074827  0.8923688454764324  0.47739805166692123  1.0000
data_image198
_chemical_formula_structural       Sn4W4O16
_chemical_formula_sum              "Sn4 W4 O16"
_cell_length_a       7.620549
_cell_length_b       7.620549
_cell_length_c       7.620549
_cell_angle_alpha    90.0
_cell_angle_beta     90.0
_cell_angle_gamma    90.0

_space_group_name_H-M_alt    "P 1"
_space_group_IT_number       1

loop_
  _space_group_symop_operation_xyz
  'x, y, z'

loop_
  _atom_site_type_symbol
  _atom_site_label
  _atom_site_symmetry_multiplicity
  _atom_site_fract_x
  _atom_site_fract_y
  _atom_site_fract_z
  _atom_site_occupancy
  Sn  Sn1       1.0  0.285689196956471  0.8029351356935279  0.7022595207679015  1.0000
  Sn  Sn2       1.0  0.3171186038076974  0.32155551902284973  0.619875228427046  1.0000
  Sn  Sn3       1.0  0.5875390792810199  0.9061664744428806  0.1949538407832699  1.0000
  Sn  Sn4       1.0  0.03229946885079571  0.22022104959297603  0.021459569594820094  1.0000
  W   W1        1.0  0.3469899286456373  0.5300322170417373  0.04251075693813743  1.0000
  W   W2        1.0  0.7195070792593026  0.547074907244658  0.7264307263672602  1.0000
  W   W3        1.0  0.7169767379936791  0.05910214176807442  0.6693622988076935  1.0000
  W   W4        1.0  0.9851128652346784  0.686876876374153  0.3327127389555956  1.0000
  O   O1        1.0  0.8011016737679371  0.7732287935073298  0.7695877538983996  1.0000
  O   O2        1.0  0.822293733158336  0.7983841305295247  0.19047719524922702  1.0000
  O   O3        1.0  0.6004049063770965  0.2782858318096736  0.6297228425519851  1.0000
  O   O4        1.0  0.4161974942145085  0.39098903905843563  0.22768709212409158  1.0000
  O   O5        1.0  0.8451196746612389  0.9882455470928878  0.49394319403967774  1.0000
  O   O6        1.0  0.3477228685463989  0.759226079037654  0.0809178245802202  1.0000
  O   O7        1.0  0.5137346541627443  0.6136482206652212  0.6158901013463406  1.0000
  O   O8        1.0  0.06435969729594251  0.5068622059976421  0.18462426823079342  1.0000
  O   O9        1.0  0.7417192124423025  0.04234844556324834  0.9072906653206722  1.0000
  O   O10       1.0  0.22464304441442842  0.5081732132708966  0.8401824910986876  1.0000
  O   O11       1.0  0.5771520407147149  0.49742181489336645  0.9223184237351335  1.0000
  O   O12       1.0  0.17615599740954746  0.8278281029022522  0.37535233249724786  1.0000
  O   O13       1.0  0.90624910410985  0.5523425909046055  0.5086180691098658  1.0000
  O   O14       1.0  0.9218335581836616  0.34292555758653925  0.7991080177746444  1.0000
  O   O15       1.0  0.22998923807478233  0.10173892072003941  0.7638763359184656  1.0000
  O   O16       1.0  0.5111896517625432  0.9358767821554105  0.6479527038637332  1.0000
data_image199
_chemical_formula_structural       Sn4W4O16
_chemical_formula_sum              "Sn4 W4 O16"
_cell_length_a       7.620549
_cell_length_b       7.620549
_cell_length_c       7.620549
_cell_angle_alpha    90.0
_cell_angle_beta     90.0
_cell_angle_gamma    90.0

_space_group_name_H-M_alt    "P 1"
_space_group_IT_number       1

loop_
  _space_group_symop_operation_xyz
  'x, y, z'

loop_
  _atom_site_type_symbol
  _atom_site_label
  _atom_site_symmetry_multiplicity
  _atom_site_fract_x
  _atom_site_fract_y
  _atom_site_fract_z
  _atom_site_occupancy
  Sn  Sn1       1.0  0.24145213358084  0.8425563586100611  0.6613777128098343  1.0000
  Sn  Sn2       1.0  0.34371161411563156  0.3148850734556227  0.5943431788270351  1.0000
  Sn  Sn3       1.0  0.5396609149890077  0.917699260256169  0.2047122514694257  1.0000
  Sn  Sn4       1.0  0.041775685424778476  0.21141014619622142  0.9797096545225142  1.0000
  W   W1        1.0  0.34802854044276027  0.514619847503631  0.05527579516245692  1.0000
  W   W2        1.0  0.7134407689753699  0.5215347209485764  0.7274826756044528  1.0000
  W   W3        1.0  0.7269137271710819  0.06711061051301624  0.7355714935380415  1.0000
  W   W4        1.0  0.987322959693821  0.6909640508682843  0.32093492322972716  1.0000
  O   O1        1.0  0.813768955613138  0.7105576564216209  0.7845623372653356  1.0000
  O   O2        1.0  0.8306205917996394  0.816871667723154  0.18480909807509582  1.0000
  O   O3        1.0  0.5957357668540258  0.28039739824744825  0.6945596935531795  1.0000
  O   O4        1.0  0.4545080683996207  0.4045078876414847  0.22528298215017306  1.0000
  O   O5        1.0  0.8836788446890834  0.08278129153353753  0.5620940918265019  1.0000
  O   O6        1.0  0.3913487201651109  0.7474240000450191  0.056592762784653826  1.0000
  O   O7        1.0  0.5378741120485209  0.6380052640940157  0.5847253949227084  1.0000
  O   O8        1.0  0.08484620607943205  0.535473512333735  0.1629294797690623  1.0000
  O   O9        1.0  0.73493159597632  0.021461249714497845  0.9795031218552477  1.0000
  O   O10       1.0  0.29876831901317497  0.5054194703615706  0.7707852349453199  1.0000
  O   O11       1.0  0.5906603646188441  0.5189405681818933  0.9348660538383063  1.0000
  O   O12       1.0  0.2180049239664119  0.7670547065129592  0.38113660243938946  1.0000
  O   O13       1.0  0.8743040213319087  0.5320498215828522  0.4407518806868075  1.0000
  O   O14       1.0  0.9040044447626597  0.3351789443973803  0.7559077754055848  1.0000
  O   O15       1.0  0.2463358944729577  0.13417150925268254  0.7992652905193119  1.0000
  O   O16       1.0  0.5518690845059753  0.9627608700566254  0.5841359191076734  1.0000
data_image200
_chemical_formula_structural       Sn4W4O16
_chemical_formula_sum              "Sn4 W4 O16"
_cell_length_a       7.620549
_cell_length_b       7.620549
_cell_length_c       7.620549
_cell_angle_alpha    90.0
_cell_angle_beta     90.0
_cell_angle_gamma    90.0

_space_group_name_H-M_alt    "P 1"
_space_group_IT_number       1

loop_
  _space_group_symop_operation_xyz
  'x, y, z'

loop_
  _atom_site_type_symbol
  _atom_site_label
  _atom_site_symmetry_multiplicity
  _atom_site_fract_x
  _atom_site_fract_y
  _atom_site_fract_z
  _atom_site_occupancy
  Sn  Sn1       1.0  0.2648679279462467  0.8453258080390446  0.7405620371383521  1.0000
  Sn  Sn2       1.0  0.2582178938875923  0.3622692101952641  0.5693839321095268  1.0000
  Sn  Sn3       1.0  0.5695779506576261  0.9405881914387108  0.20420696592829082  1.0000
  Sn  Sn4       1.0  0.03786059036889324  0.21717942837254034  0.9198107684239001  1.0000
  W   W1        1.0  0.3968961144400598  0.5218343164782793  0.05680012645541969  1.0000
  W   W2        1.0  0.7027757073098817  0.5385333605425789  0.7252354891255092  1.0000
  W   W3        1.0  0.6876239192911104  0.02516584311876083  0.7100913512576954  1.0000
  W   W4        1.0  0.023817347913691167  0.6821265805282446  0.3311902918094407  1.0000
  O   O1        1.0  0.7202909365737847  0.7482412809527315  0.8532997760772874  1.0000
  O   O2        1.0  0.8714307195296215  0.880712612275334  0.26326408276837765  1.0000
  O   O3        1.0  0.5849902120727225  0.16532380831211876  0.48637617591008225  1.0000
  O   O4        1.0  0.37556824763803587  0.3329765910542859  0.23191108286076786  1.0000
  O   O5        1.0  0.9204282475483431  0.015598104920904854  0.6805428497797956  1.0000
  O   O6        1.0  0.43260872399997363  0.7742175392031718  0.04830048330594937  1.0000
  O   O7        1.0  0.4841815547270387  0.5261036788192415  0.6288923249473158  1.0000
  O   O8        1.0  0.1587634371336843  0.6034874206273257  0.1354511609044053  1.0000
  O   O9        1.0  0.6247582980142119  0.051595039728051774  0.951177794241178  1.0000
  O   O10       1.0  0.29713404733472815  0.4241909023328142  0.8803160424708449  1.0000
  O   O11       1.0  0.6284664342795383  0.40578467336708673  0.9522856121370076  1.0000
  O   O12       1.0  0.1925768065914124  0.8497890631961033  0.41380988150503434  1.0000
  O   O13       1.0  0.9092742969376068  0.598367995350023  0.5295078723755708  1.0000
  O   O14       1.0  0.8617694701777248  0.3400363104274521  0.7167048655513952  1.0000
  O   O15       1.0  0.26047424125332863  0.1336578206766254  0.7384085516951269  1.0000
  O   O16       1.0  0.5481432957867106  0.8558897891643836  0.6223451018215047  1.0000
