data_image0
_chemical_formula_structural       K4N4O12
_chemical_formula_sum              "K4 N4 O12"
_cell_length_a       5.602235
_cell_length_b       6.405085
_cell_length_c       9.268196
_cell_angle_alpha    90.0
_cell_angle_beta     90.0
_cell_angle_gamma    90.0

_space_group_name_H-M_alt    "P 1"
_space_group_IT_number       1

loop_
  _space_group_symop_operation_xyz
  'x, y, z'

loop_
  _atom_site_type_symbol
  _atom_site_label
  _atom_site_symmetry_multiplicity
  _atom_site_fract_x
  _atom_site_fract_y
  _atom_site_fract_z
  _atom_site_occupancy
  K   K1        1.0  0.25  0.135966  0.389954  1.0000
  K   K2        1.0  0.75  0.364034  0.8899539999999999  1.0000
  K   K3        1.0  0.25  0.635966  0.11004599999999996  1.0000
  K   K4        1.0  0.75  0.8640340000000001  0.6100459999999999  1.0000
  N   N1        1.0  0.75  0.8853710000000002  0.13414699999999996  1.0000
  N   N2        1.0  0.25  0.614629  0.6341469999999999  1.0000
  N   N3        1.0  0.25  0.11462900000000001  0.8658529999999999  1.0000
  N   N4        1.0  0.75  0.38537100000000013  0.365853  1.0000
  O   O1        1.0  0.25  0.7740960000000002  0.5516959999999999  1.0000
  O   O2        1.0  0.553714  0.4639850000000001  0.325762  1.0000
  O   O3        1.0  0.446286  0.536015  0.6742379999999999  1.0000
  O   O4        1.0  0.946286  0.4639850000000001  0.325762  1.0000
  O   O5        1.0  0.446286  0.036015  0.825762  1.0000
  O   O6        1.0  0.053714  0.036015  0.825762  1.0000
  O   O7        1.0  0.053714  0.536015  0.6742379999999999  1.0000
  O   O8        1.0  0.553714  0.963985  0.17423799999999998  1.0000
  O   O9        1.0  0.25  0.274096  0.9483039999999999  1.0000
  O   O10       1.0  0.75  0.22590400000000005  0.4483039999999999  1.0000
  O   O11       1.0  0.75  0.725904  0.05169599999999999  1.0000
  O   O12       1.0  0.946286  0.963985  0.174238  1.0000
data_image1
_chemical_formula_structural       K4N4O12
_chemical_formula_sum              "K4 N4 O12"
_cell_length_a       5.602235
_cell_length_b       6.405085
_cell_length_c       9.268196
_cell_angle_alpha    90.0
_cell_angle_beta     90.0
_cell_angle_gamma    90.0

_space_group_name_H-M_alt    "P 1"
_space_group_IT_number       1

loop_
  _space_group_symop_operation_xyz
  'x, y, z'

loop_
  _atom_site_type_symbol
  _atom_site_label
  _atom_site_symmetry_multiplicity
  _atom_site_fract_x
  _atom_site_fract_y
  _atom_site_fract_z
  _atom_site_occupancy
  K   K1        1.0  0.15548916953291134  0.17394421159987145  0.30307043569818154  1.0000
  K   K2        1.0  0.7871568620584417  0.41509005412362665  0.9007142598725515  1.0000
  K   K3        1.0  0.3286741277599313  0.6295669957778852  0.07062766136996107  1.0000
  K   K4        1.0  0.812999611882993  0.876851373156336  0.6028852853680091  1.0000
  N   N1        1.0  0.780823373008006  0.8630391011737747  0.14459482977381743  1.0000
  N   N2        1.0  0.29260393144450514  0.5945408270992487  0.6839492434488784  1.0000
  N   N3        1.0  0.1478327382992469  0.05910931002212451  0.8623380981993954  1.0000
  N   N4        1.0  0.7430938678798554  0.4036819134116543  0.377413348861164  1.0000
  O   O1        1.0  0.2854107001756324  0.736651605599642  0.5730123011154152  1.0000
  O   O2        1.0  0.5227567785696332  0.4034457628425129  0.3421459195856431  1.0000
  O   O3        1.0  0.45903467589513314  0.5035789184174644  0.7295290743325858  1.0000
  O   O4        1.0  0.8928307437067599  0.5463902009736569  0.34928723796730893  1.0000
  O   O5        1.0  0.2914074241547351  0.8926195407403509  0.8675556021849662  1.0000
  O   O6        1.0  0.9596729675522898  0.0910540752082735  0.7805236437629022  1.0000
  O   O7        1.0  0.08855100943077454  0.5852039475864022  0.7448777977573555  1.0000
  O   O8        1.0  0.616624528800281  0.9522814385182105  0.2184569906546397  1.0000
  O   O9        1.0  0.1781666798780225  0.19101346602483266  0.9507623246825235  1.0000
  O   O10       1.0  0.801514936268108  0.27853133734748936  0.4771234379717244  1.0000
  O   O11       1.0  0.7313123810783461  0.7442267680647517  0.043977012083808775  1.0000
  O   O12       1.0  0.995530480688988  0.9097337379467281  0.1628749831233221  1.0000
data_image2
_chemical_formula_structural       K4N4O12
_chemical_formula_sum              "K4 N4 O12"
_cell_length_a       5.602235
_cell_length_b       6.405085
_cell_length_c       9.268196
_cell_angle_alpha    90.0
_cell_angle_beta     90.0
_cell_angle_gamma    90.0

_space_group_name_H-M_alt    "P 1"
_space_group_IT_number       1

loop_
  _space_group_symop_operation_xyz
  'x, y, z'

loop_
  _atom_site_type_symbol
  _atom_site_label
  _atom_site_symmetry_multiplicity
  _atom_site_fract_x
  _atom_site_fract_y
  _atom_site_fract_z
  _atom_site_occupancy
  K   K1        1.0  0.1765069036507227  0.2196557589983455  0.32070324562229213  1.0000
  K   K2        1.0  0.763878685516967  0.37536834782249373  0.8743962627043503  1.0000
  K   K3        1.0  0.2691706154773136  0.5699753886508507  0.04470586238252732  1.0000
  K   K4        1.0  0.6874864731833151  0.9285877917697632  0.5231207432104126  1.0000
  N   N1        1.0  0.7880518879583014  0.8376847800351341  0.19240115547939288  1.0000
  N   N2        1.0  0.3574307030155561  0.6446546096469681  0.6268289134628399  1.0000
  N   N3        1.0  0.1612745411084172  0.05961539020267216  0.8794357395205421  1.0000
  N   N4        1.0  0.7913435129813643  0.39214886120057174  0.45862525890566164  1.0000
  O   O1        1.0  0.3294175482390444  0.6681205475002769  0.4903245825656877  1.0000
  O   O2        1.0  0.5812855273733549  0.3277436757576689  0.42629068731564934  1.0000
  O   O3        1.0  0.5296599955720805  0.6505613456735194  0.7000001823008667  1.0000
  O   O4        1.0  0.8818447379369153  0.5328544038984757  0.372267400861357  1.0000
  O   O5        1.0  0.3195530370408269  0.9311370151465765  0.8919239135397087  1.0000
  O   O6        1.0  0.9922995929634567  0.008691685396752214  0.7838023188357891  1.0000
  O   O7        1.0  0.14323211123225646  0.5707005055878576  0.6861237440629475  1.0000
  O   O8        1.0  0.5831082921947297  0.9163776267818938  0.2005313667449371  1.0000
  O   O9        1.0  0.11177497436979314  0.22898675555993867  0.9694935824752303  1.0000
  O   O10       1.0  0.8950100007284365  0.3316381580842293  0.5654688324801905  1.0000
  O   O11       1.0  0.8500278151466346  0.7146533418082485  0.0893222002130299  1.0000
  O   O12       1.0  0.9430845218793193  0.9454003014219488  0.2664578573754658  1.0000
data_image3
_chemical_formula_structural       K4N4O12
_chemical_formula_sum              "K4 N4 O12"
_cell_length_a       5.602235
_cell_length_b       6.405085
_cell_length_c       9.268196
_cell_angle_alpha    90.0
_cell_angle_beta     90.0
_cell_angle_gamma    90.0

_space_group_name_H-M_alt    "P 1"
_space_group_IT_number       1

loop_
  _space_group_symop_operation_xyz
  'x, y, z'

loop_
  _atom_site_type_symbol
  _atom_site_label
  _atom_site_symmetry_multiplicity
  _atom_site_fract_x
  _atom_site_fract_y
  _atom_site_fract_z
  _atom_site_occupancy
  K   K1        1.0  0.16278600065293986  0.29913183884506467  0.285274554014548  1.0000
  K   K2        1.0  0.6920058771552674  0.25807978457116276  0.8324105709810723  1.0000
  K   K3        1.0  0.3339707655092996  0.6889481126541236  0.04246980381450926  1.0000
  K   K4        1.0  0.7279087455611714  0.8917694624299031  0.5145164367874696  1.0000
  N   N1        1.0  0.7961347317520984  0.8475232118385383  0.17149153889244997  1.0000
  N   N2        1.0  0.34748359249752997  0.6293498354644295  0.6487817984650759  1.0000
  N   N3        1.0  0.19162863157894586  0.0836794269797499  0.8761181056811067  1.0000
  N   N4        1.0  0.7195898844873461  0.3396838189115862  0.4791875462452535  1.0000
  O   O1        1.0  0.3010733789921837  0.6839170158356873  0.5291069424291032  1.0000
  O   O2        1.0  0.5147880763865971  0.2996260248600722  0.5097695508231241  1.0000
  O   O3        1.0  0.5466455709646308  0.6500694545303584  0.7104007095640348  1.0000
  O   O4        1.0  0.7087196469449856  0.4790815095844738  0.3681626999267695  1.0000
  O   O5        1.0  0.3793737646576845  0.9829006843268671  0.823971566106766  1.0000
  O   O6        1.0  0.07244777976077747  0.948441504085128  0.9575545662797476  1.0000
  O   O7        1.0  0.18822236220930594  0.5645967877238858  0.7403216246411733  1.0000
  O   O8        1.0  0.6155783624791255  0.95678894113498  0.17980716877751513  1.0000
  O   O9        1.0  0.16105018894053688  0.28679041744766  0.9129808142196524  1.0000
  O   O10       1.0  0.9145117583230915  0.3325857766715916  0.5563457973037718  1.0000
  O   O11       1.0  0.8157606295635754  0.6995419630320665  0.07639072707224964  1.0000
  O   O12       1.0  0.9344473311115836  0.8644589843888929  0.27831637264793846  1.0000
data_image4
_chemical_formula_structural       K4N4O12
_chemical_formula_sum              "K4 N4 O12"
_cell_length_a       5.602235
_cell_length_b       6.405085
_cell_length_c       9.268196
_cell_angle_alpha    90.0
_cell_angle_beta     90.0
_cell_angle_gamma    90.0

_space_group_name_H-M_alt    "P 1"
_space_group_IT_number       1

loop_
  _space_group_symop_operation_xyz
  'x, y, z'

loop_
  _atom_site_type_symbol
  _atom_site_label
  _atom_site_symmetry_multiplicity
  _atom_site_fract_x
  _atom_site_fract_y
  _atom_site_fract_z
  _atom_site_occupancy
  K   K1        1.0  0.26720133369209953  0.2251843592192861  0.32471517743529427  1.0000
  K   K2        1.0  0.7404480861123508  0.1730352803740799  0.8690799187374038  1.0000
  K   K3        1.0  0.3183456840550837  0.714806318744582  0.9719334950808599  1.0000
  K   K4        1.0  0.7282032100459789  0.7900082994318085  0.47455543041724846  1.0000
  N   N1        1.0  0.8099384201507165  0.825430424803732  0.19237419760868443  1.0000
  N   N2        1.0  0.2345406193596432  0.6984594928184171  0.644978677143212  1.0000
  N   N3        1.0  0.1919171905340547  0.19888479761616593  0.9222446274134041  1.0000
  N   N4        1.0  0.7337217682879125  0.31253948945478394  0.47789044547443305  1.0000
  O   O1        1.0  0.2485614852438065  0.6925031556394962  0.504410171045707  1.0000
  O   O2        1.0  0.5693874371557571  0.28487969209319214  0.5644208432676068  1.0000
  O   O3        1.0  0.3973662020159329  0.7557114219843001  0.7115741251456984  1.0000
  O   O4        1.0  0.6927106042127608  0.3966513906333533  0.36337414831447407  1.0000
  O   O5        1.0  0.10351133132387635  0.1259312058159339  0.806127400902763  1.0000
  O   O6        1.0  0.09038649728254959  0.19366303642530183  0.0454950878805922  1.0000
  O   O7        1.0  0.020508360150862333  0.703654887160638  0.6969848117364973  1.0000
  O   O8        1.0  0.6580428734712147  0.976137094966312  0.22766021502956463  1.0000
  O   O9        1.0  0.37262642568589943  0.31342513978053904  0.9074812949673214  1.0000
  O   O10       1.0  0.9479492470030066  0.2418139040527282  0.5057825830803648  1.0000
  O   O11       1.0  0.7395023166316368  0.6965971033301296  0.08945511825637008  1.0000
  O   O12       1.0  0.05363759758767683  0.8239488447619918  0.2474911073155707  1.0000
data_image5
_chemical_formula_structural       K4N4O12
_chemical_formula_sum              "K4 N4 O12"
_cell_length_a       5.602235
_cell_length_b       6.405085
_cell_length_c       9.268196
_cell_angle_alpha    90.0
_cell_angle_beta     90.0
_cell_angle_gamma    90.0

_space_group_name_H-M_alt    "P 1"
_space_group_IT_number       1

loop_
  _space_group_symop_operation_xyz
  'x, y, z'

loop_
  _atom_site_type_symbol
  _atom_site_label
  _atom_site_symmetry_multiplicity
  _atom_site_fract_x
  _atom_site_fract_y
  _atom_site_fract_z
  _atom_site_occupancy
  K   K1        1.0  0.32692330190055696  0.18348333363817698  0.29295353627227333  1.0000
  K   K2        1.0  0.7774350430997379  0.021377588489193876  0.844651763142086  1.0000
  K   K3        1.0  0.17309640669682577  0.750434450143784  0.9520056870636723  1.0000
  K   K4        1.0  0.6831565382126991  0.6652195965120794  0.5258110137771196  1.0000
  N   N1        1.0  0.7478543642279335  0.8590169164639367  0.17044841932235086  1.0000
  N   N2        1.0  0.20963090666365652  0.7853283335627333  0.6246020275192103  1.0000
  N   N3        1.0  0.22545729294140526  0.314463663250745  0.953687564482918  1.0000
  N   N4        1.0  0.8285788480012448  0.25166208481831753  0.500352227018205  1.0000
  O   O1        1.0  0.21816843195661323  0.7710683194708731  0.4852769491145703  1.0000
  O   O2        1.0  0.6119851974144664  0.2446186754122293  0.5230826893095671  1.0000
  O   O3        1.0  0.40313740444929674  0.8443099590905323  0.6889722611037996  1.0000
  O   O4        1.0  0.9072819872941779  0.3485249418657562  0.38580948085275385  1.0000
  O   O5        1.0  0.21073091490301896  0.16807627826288637  0.8714839869341732  1.0000
  O   O6        1.0  0.040926290085272606  0.4053824524103184  0.015956650247768378  1.0000
  O   O7        1.0  0.01894876921587718  0.8047113233247428  0.6849134718947388  1.0000
  O   O8        1.0  0.6466413335070603  0.9148722255394405  0.2860573213941938  1.0000
  O   O9        1.0  0.4345055242650855  0.39547528368784945  0.9527737500398936  1.0000
  O   O10       1.0  0.9796816398558509  0.22157299770889877  0.6003304328178681  1.0000
  O   O11       1.0  0.6222371210184001  0.8232199825367004  0.051094492032109175  1.0000
  O   O12       1.0  0.9886727018627801  0.8049812996967571  0.17831421923364513  1.0000
data_image6
_chemical_formula_structural       K4N4O12
_chemical_formula_sum              "K4 N4 O12"
_cell_length_a       5.602235
_cell_length_b       6.405085
_cell_length_c       9.268196
_cell_angle_alpha    90.0
_cell_angle_beta     90.0
_cell_angle_gamma    90.0

_space_group_name_H-M_alt    "P 1"
_space_group_IT_number       1

loop_
  _space_group_symop_operation_xyz
  'x, y, z'

loop_
  _atom_site_type_symbol
  _atom_site_label
  _atom_site_symmetry_multiplicity
  _atom_site_fract_x
  _atom_site_fract_y
  _atom_site_fract_z
  _atom_site_occupancy
  K   K1        1.0  0.3776530995011629  0.26964504829744207  0.27295282147479194  1.0000
  K   K2        1.0  0.6848964990782928  0.21668392735507155  0.8088581633393354  1.0000
  K   K3        1.0  0.24344174236372185  0.7250745056047821  0.9641366437586378  1.0000
  K   K4        1.0  0.6211771116247314  0.6065989605237457  0.5161137593353524  1.0000
  N   N1        1.0  0.700388891546472  0.8821649933605267  0.17451728069391137  1.0000
  N   N2        1.0  0.16829709675430796  0.7343822249744913  0.6294551469735192  1.0000
  N   N3        1.0  0.21847211119764334  0.25458960139095216  0.9871740712727778  1.0000
  N   N4        1.0  0.967617951968705  0.2478601492872999  0.5042003863444249  1.0000
  O   O1        1.0  0.12489337254184937  0.7761861657370788  0.5051532817783593  1.0000
  O   O2        1.0  0.8175274786852728  0.11612109350649605  0.49793280064867534  1.0000
  O   O3        1.0  0.38517151361888446  0.7869469798084466  0.6767203368957921  1.0000
  O   O4        1.0  0.9692092226254693  0.4145226321331463  0.4114124195229177  1.0000
  O   O5        1.0  0.25406916449629496  0.09977183476211274  0.9194693962597539  1.0000
  O   O6        1.0  0.013682838831495766  0.3049558821525905  0.030046600723604655  1.0000
  O   O7        1.0  0.010755331512384373  0.6630092092661287  0.7113701638621246  1.0000
  O   O8        1.0  0.4732924494684928  0.8268750634019187  0.23374487761862528  1.0000
  O   O9        1.0  0.3944321132024569  0.3740508693629211  0.9835932955407252  1.0000
  O   O10       1.0  0.1267475566476668  0.20378829018907008  0.6044959250671164  1.0000
  O   O11       1.0  0.6826670548135263  0.019782008281483243  0.054520889820081235  1.0000
  O   O12       1.0  0.875119971936828  0.7605990142968453  0.18537759706729  1.0000
data_image7
_chemical_formula_structural       K4N4O12
_chemical_formula_sum              "K4 N4 O12"
_cell_length_a       5.602235
_cell_length_b       6.405085
_cell_length_c       9.268196
_cell_angle_alpha    90.0
_cell_angle_beta     90.0
_cell_angle_gamma    90.0

_space_group_name_H-M_alt    "P 1"
_space_group_IT_number       1

loop_
  _space_group_symop_operation_xyz
  'x, y, z'

loop_
  _atom_site_type_symbol
  _atom_site_label
  _atom_site_symmetry_multiplicity
  _atom_site_fract_x
  _atom_site_fract_y
  _atom_site_fract_z
  _atom_site_occupancy
  K   K1        1.0  0.49125792237580296  0.18270669914704718  0.3135589404418911  1.0000
  K   K2        1.0  0.750201360022903  0.24216773951216752  0.7694048197047313  1.0000
  K   K3        1.0  0.2516392203340651  0.7272626457248799  0.9550339317556006  1.0000
  K   K4        1.0  0.5899031686283184  0.7073570628516476  0.47191984204601006  1.0000
  N   N1        1.0  0.7023001591808886  0.8052061988743751  0.1612788833008383  1.0000
  N   N2        1.0  0.07081521424380671  0.7007167848461752  0.6502921238145776  1.0000
  N   N3        1.0  0.12962365618775096  0.30968246982651587  0.9854569786592021  1.0000
  N   N4        1.0  0.06552870225296736  0.24547701527708746  0.4959923879405448  1.0000
  O   O1        1.0  0.9892554309049328  0.7362482485902077  0.5280353238629738  1.0000
  O   O2        1.0  0.8455651043873081  0.17943914876924807  0.5221746622536987  1.0000
  O   O3        1.0  0.30094639504853854  0.7076283076157333  0.6793188571474906  1.0000
  O   O4        1.0  0.11157445777233277  0.3616299245197794  0.40078928320301377  1.0000
  O   O5        1.0  0.1910325611576166  0.23872853645535935  0.8720916413367654  1.0000
  O   O6        1.0  0.9693612102800255  0.459787257938152  0.9943393283142559  1.0000
  O   O7        1.0  0.9330357167854906  0.7147458090014038  0.7645534544413721  1.0000
  O   O8        1.0  0.48247679768253104  0.8683247145370065  0.20956889059402944  1.0000
  O   O9        1.0  0.2509728784886919  0.277623973111583  0.10181594129350313  1.0000
  O   O10       1.0  0.17299419639709424  0.21818039407742423  0.6181942309331436  1.0000
  O   O11       1.0  0.7893939425914984  0.8808469665525277  0.03784056762838025  1.0000
  O   O12       1.0  0.7892105986411297  0.6542927417596955  0.21578959314328217  1.0000
data_image8
_chemical_formula_structural       K4N4O12
_chemical_formula_sum              "K4 N4 O12"
_cell_length_a       5.602235
_cell_length_b       6.405085
_cell_length_c       9.268196
_cell_angle_alpha    90.0
_cell_angle_beta     90.0
_cell_angle_gamma    90.0

_space_group_name_H-M_alt    "P 1"
_space_group_IT_number       1

loop_
  _space_group_symop_operation_xyz
  'x, y, z'

loop_
  _atom_site_type_symbol
  _atom_site_label
  _atom_site_symmetry_multiplicity
  _atom_site_fract_x
  _atom_site_fract_y
  _atom_site_fract_z
  _atom_site_occupancy
  K   K1        1.0  0.5952841583870151  0.23097798611004897  0.310667594683217  1.0000
  K   K2        1.0  0.7453867409870943  0.17508439689205743  0.7400032473447431  1.0000
  K   K3        1.0  0.188287200195083  0.8645691795374648  0.9584122974586207  1.0000
  K   K4        1.0  0.5989776374017963  0.7464440003451317  0.5059907799097673  1.0000
  N   N1        1.0  0.6081841211282805  0.714310135713482  0.2092057332234117  1.0000
  N   N2        1.0  0.07916408531798025  0.7452840303497805  0.605216830800185  1.0000
  N   N3        1.0  0.0770991341170759  0.2594345612621847  0.01094204146319444  1.0000
  N   N4        1.0  0.15755057365140268  0.2461584984321166  0.4734251308748778  1.0000
  O   O1        1.0  0.1272888464262209  0.7532796081668752  0.47092742638747864  1.0000
  O   O2        1.0  0.9371143428691202  0.196902073445732  0.47182399722134166  1.0000
  O   O3        1.0  0.2003111892870805  0.6549474659955686  0.7009788990625803  1.0000
  O   O4        1.0  0.20717434907911647  0.4245572845326157  0.43653241929640585  1.0000
  O   O5        1.0  0.22687885505990252  0.2664611263738842  0.9121473227850945  1.0000
  O   O6        1.0  0.8842707828940486  0.35973804711137286  0.983349252259688  1.0000
  O   O7        1.0  0.918008458528184  0.8591116519711818  0.6538707146278755  1.0000
  O   O8        1.0  0.42608192813713613  0.8018838578613631  0.27314681368162436  1.0000
  O   O9        1.0  0.12307033534701894  0.18440559279684585  0.13771405705218154  1.0000
  O   O10       1.0  0.29393963221754893  0.12988608739420937  0.5419879555799453  1.0000
  O   O11       1.0  0.6954006406442382  0.8198091614589177  0.10489339750265535  1.0000
  O   O12       1.0  0.7192668167056689  0.5431859328060319  0.238829268650921  1.0000
data_image9
_chemical_formula_structural       K4N4O12
_chemical_formula_sum              "K4 N4 O12"
_cell_length_a       5.602235
_cell_length_b       6.405085
_cell_length_c       9.268196
_cell_angle_alpha    90.0
_cell_angle_beta     90.0
_cell_angle_gamma    90.0

_space_group_name_H-M_alt    "P 1"
_space_group_IT_number       1

loop_
  _space_group_symop_operation_xyz
  'x, y, z'

loop_
  _atom_site_type_symbol
  _atom_site_label
  _atom_site_symmetry_multiplicity
  _atom_site_fract_x
  _atom_site_fract_y
  _atom_site_fract_z
  _atom_site_occupancy
  K   K1        1.0  0.7102087268696125  0.1902384488537381  0.26039626017505413  1.0000
  K   K2        1.0  0.6699372552774144  0.21418881077407326  0.8268936185118975  1.0000
  K   K3        1.0  0.1416814170465519  0.7749100496115533  0.9696138145781563  1.0000
  K   K4        1.0  0.5550590311643523  0.6696519194847592  0.4946647349093617  1.0000
  N   N1        1.0  0.622521579945816  0.7735583286871797  0.1359930987111684  1.0000
  N   N2        1.0  0.030182386961021306  0.7604116723012565  0.6271089645155218  1.0000
  N   N3        1.0  0.05432009956166188  0.3354664959901381  0.0205602231952009  1.0000
  N   N4        1.0  0.25943632944127715  0.1858293900702482  0.4753854885942321  1.0000
  O   O1        1.0  0.9866460427469576  0.7711981316838781  0.5015515194907444  1.0000
  O   O2        1.0  0.032255773770499374  0.17566280536988021  0.4468220526560236  1.0000
  O   O3        1.0  0.22018773821531487  0.7041128125245778  0.6929767071252649  1.0000
  O   O4        1.0  0.36354229752821565  0.35302737009185337  0.4525288764070306  1.0000
  O   O5        1.0  0.13136410463787448  0.41444413306967515  0.8989990789689569  1.0000
  O   O6        1.0  0.8418949632779966  0.42043962915108346  0.04256304491237106  1.0000
  O   O7        1.0  0.8613985099375105  0.7948879855117159  0.7251653849409662  1.0000
  O   O8        1.0  0.3962535436620519  0.7109125352436083  0.1595522919070793  1.0000
  O   O9        1.0  0.2121237815016336  0.2789281093009198  0.10661230479541173  1.0000
  O   O10       1.0  0.3419099091627551  0.04562028836722766  0.5543631354148699  1.0000
  O   O11       1.0  0.6786737558817361  0.916191018446069  0.0463004114336966  1.0000
  O   O12       1.0  0.7805213653333286  0.7404692466999679  0.2437158300793346  1.0000
data_image10
_chemical_formula_structural       K4N4O12
_chemical_formula_sum              "K4 N4 O12"
_cell_length_a       5.602235
_cell_length_b       6.405085
_cell_length_c       9.268196
_cell_angle_alpha    90.0
_cell_angle_beta     90.0
_cell_angle_gamma    90.0

_space_group_name_H-M_alt    "P 1"
_space_group_IT_number       1

loop_
  _space_group_symop_operation_xyz
  'x, y, z'

loop_
  _atom_site_type_symbol
  _atom_site_label
  _atom_site_symmetry_multiplicity
  _atom_site_fract_x
  _atom_site_fract_y
  _atom_site_fract_z
  _atom_site_occupancy
  K   K1        1.0  0.8374028044988651  0.25216847108277174  0.287155411295107  1.0000
  K   K2        1.0  0.5282593933016382  0.22039005891054625  0.7916418012671873  1.0000
  K   K3        1.0  0.09261256554458616  0.8180900651000554  0.9911214859129693  1.0000
  K   K4        1.0  0.5561272708123486  0.7069907230034269  0.4813117867030696  1.0000
  N   N1        1.0  0.5746440991734959  0.7821343284739503  0.09353857153020458  1.0000
  N   N2        1.0  0.0973625078727904  0.7091419765825292  0.674245542266424  1.0000
  N   N3        1.0  0.02758808656577245  0.26818817392963035  0.0044516332168060835  1.0000
  N   N4        1.0  0.28411692193610616  0.2282092235783165  0.5145987383599386  1.0000
  O   O1        1.0  0.08977242337463655  0.7297626179814685  0.5449319331293886  1.0000
  O   O2        1.0  0.10921742516403965  0.30881481590267607  0.5677992917177639  1.0000
  O   O3        1.0  0.27482117920200166  0.6971900071103061  0.7508831716772731  1.0000
  O   O4        1.0  0.3237929886879747  0.24740324211299097  0.3788366367276155  1.0000
  O   O5        1.0  0.10634476417767157  0.3019858849993332  0.8801637618135009  1.0000
  O   O6        1.0  0.8348487860595801  0.38043114862618765  0.026191179605564052  1.0000
  O   O7        1.0  0.9009572122594203  0.6676805492758747  0.735131542397222  1.0000
  O   O8        1.0  0.48972576010275504  0.6163295003500866  0.07644565436084964  1.0000
  O   O9        1.0  0.1626244281590149  0.16887342016296045  0.09094284393633201  1.0000
  O   O10       1.0  0.428144745363253  0.11796790776413843  0.5870861851705299  1.0000
  O   O11       1.0  0.5175784562595145  0.9506993655741266  0.014811215986314888  1.0000
  O   O12       1.0  0.7455717428048517  0.8309438518581673  0.19613381386766798  1.0000
data_image11
_chemical_formula_structural       K4N4O12
_chemical_formula_sum              "K4 N4 O12"
_cell_length_a       5.602235
_cell_length_b       6.405085
_cell_length_c       9.268196
_cell_angle_alpha    90.0
_cell_angle_beta     90.0
_cell_angle_gamma    90.0

_space_group_name_H-M_alt    "P 1"
_space_group_IT_number       1

loop_
  _space_group_symop_operation_xyz
  'x, y, z'

loop_
  _atom_site_type_symbol
  _atom_site_label
  _atom_site_symmetry_multiplicity
  _atom_site_fract_x
  _atom_site_fract_y
  _atom_site_fract_z
  _atom_site_occupancy
  K   K1        1.0  0.8878746753565876  0.3450539044426592  0.3452415889755014  1.0000
  K   K2        1.0  0.52320538854994  0.3763680745643736  0.8137434979860746  1.0000
  K   K3        1.0  0.10276667340245939  0.8170056923689945  0.9356743935433762  1.0000
  K   K4        1.0  0.5322975673797263  0.7273051025205257  0.4932408053563811  1.0000
  N   N1        1.0  0.5929635028753728  0.6908153063770975  0.14595186827968998  1.0000
  N   N2        1.0  0.005289154430793171  0.6213257935835463  0.6589206597788269  1.0000
  N   N3        1.0  0.9792846220180004  0.2971831465617145  0.9897872474814914  1.0000
  N   N4        1.0  0.37005013573042067  0.20678898469095078  0.48079072340510154  1.0000
  O   O1        1.0  0.970989995663792  0.6226639353068691  0.5319984076179936  1.0000
  O   O2        1.0  0.21070798955781234  0.08625647724787575  0.5197333113015382  1.0000
  O   O3        1.0  0.20505974987273975  0.6048891435923076  0.7165241909411469  1.0000
  O   O4        1.0  0.35990497608456473  0.3571621920349682  0.39042969871311367  1.0000
  O   O5        1.0  0.03331396994140342  0.2733927442604324  0.8653810655377462  1.0000
  O   O6        1.0  0.8183021629034639  0.4483040028521725  0.0025881675161969486  1.0000
  O   O7        1.0  0.816561143205214  0.6944614929530711  0.7414705736632441  1.0000
  O   O8        1.0  0.4049197943315185  0.5955396308640558  0.0983913151428747  1.0000
  O   O9        1.0  0.11698827393364507  0.22474439602133076  0.0913713496174764  1.0000
  O   O10       1.0  0.5883988501850721  0.12947550266765562  0.5003020257127037  1.0000
  O   O11       1.0  0.697669019936695  0.8223021715559692  0.05567137185439575  1.0000
  O   O12       1.0  0.7146440871012331  0.6581100153150292  0.2570826550775094  1.0000
data_image12
_chemical_formula_structural       K4N4O12
_chemical_formula_sum              "K4 N4 O12"
_cell_length_a       5.602235
_cell_length_b       6.405085
_cell_length_c       9.268196
_cell_angle_alpha    90.0
_cell_angle_beta     90.0
_cell_angle_gamma    90.0

_space_group_name_H-M_alt    "P 1"
_space_group_IT_number       1

loop_
  _space_group_symop_operation_xyz
  'x, y, z'

loop_
  _atom_site_type_symbol
  _atom_site_label
  _atom_site_symmetry_multiplicity
  _atom_site_fract_x
  _atom_site_fract_y
  _atom_site_fract_z
  _atom_site_occupancy
  K   K1        1.0  0.9555281886730335  0.16574754381017198  0.33948435427704265  1.0000
  K   K2        1.0  0.5073245278675226  0.4086065494738863  0.7907255464077834  1.0000
  K   K3        1.0  0.14974387783415605  0.8647229139009145  0.9450839760944525  1.0000
  K   K4        1.0  0.5258889252638597  0.7880866030904115  0.524833006821272  1.0000
  N   N1        1.0  0.5280521334371802  0.7792294978079147  0.1440183947419051  1.0000
  N   N2        1.0  0.9227272761885029  0.5922560576427426  0.6518932825657072  1.0000
  N   N3        1.0  0.054820557335010005  0.2811285705933102  0.993373288005408  1.0000
  N   N4        1.0  0.3949549080155743  0.18592856564719998  0.4774352218023481  1.0000
  O   O1        1.0  0.851754781123919  0.5238371468794739  0.5163563382791403  1.0000
  O   O2        1.0  0.39507747196488485  0.05169444487124778  0.3701414078076979  1.0000
  O   O3        1.0  0.12130774555053751  0.5984555237837745  0.6996715830651804  1.0000
  O   O4        1.0  0.3646981700317895  0.3941868047327473  0.45327705523984707  1.0000
  O   O5        1.0  0.08508587418499526  0.21640477269839906  0.85972939881392  1.0000
  O   O6        1.0  0.9804068365875916  0.4710685636740937  0.9945552591462312  1.0000
  O   O7        1.0  0.7683908121813717  0.7166725690140162  0.7329660624602763  1.0000
  O   O8        1.0  0.3518950320102368  0.6799019838882548  0.18450611671468603  1.0000
  O   O9        1.0  0.10858767139973503  0.18983270393686213  0.10272743046476562  1.0000
  O   O10       1.0  0.43676927407408295  0.13025046611108174  0.5990924338216451  1.0000
  O   O11       1.0  0.5489137681511463  0.8599844670357708  0.023653020647958413  1.0000
  O   O12       1.0  0.7424544720809699  0.7569373565149728  0.211640385410345  1.0000
data_image13
_chemical_formula_structural       K4N4O12
_chemical_formula_sum              "K4 N4 O12"
_cell_length_a       5.602235
_cell_length_b       6.405085
_cell_length_c       9.268196
_cell_angle_alpha    90.0
_cell_angle_beta     90.0
_cell_angle_gamma    90.0

_space_group_name_H-M_alt    "P 1"
_space_group_IT_number       1

loop_
  _space_group_symop_operation_xyz
  'x, y, z'

loop_
  _atom_site_type_symbol
  _atom_site_label
  _atom_site_symmetry_multiplicity
  _atom_site_fract_x
  _atom_site_fract_y
  _atom_site_fract_z
  _atom_site_occupancy
  K   K1        1.0  0.9892468134813099  0.0668235762121516  0.35922591188327974  1.0000
  K   K2        1.0  0.3974119225941404  0.40969005490704097  0.8180407345592435  1.0000
  K   K3        1.0  0.17395069504232802  0.8517891507236653  0.9820145229022073  1.0000
  K   K4        1.0  0.5422544266806469  0.8689686474030637  0.41143926094940064  1.0000
  N   N1        1.0  0.6433748875825478  0.7847521640791701  0.10608752179031287  1.0000
  N   N2        1.0  0.8791181675163737  0.5903199538323827  0.6970107749844052  1.0000
  N   N3        1.0  0.002666627742252586  0.23819669699824178  0.010457324370717114  1.0000
  N   N4        1.0  0.39535833551355637  0.27673942777276517  0.4772904543608561  1.0000
  O   O1        1.0  0.858819217514976  0.4001239324579389  0.6314386996185506  1.0000
  O   O2        1.0  0.49181564023730173  0.25786291366335923  0.34978051333378807  1.0000
  O   O3        1.0  0.08254135675103313  0.6742144293136659  0.7353517488302407  1.0000
  O   O4        1.0  0.41243905078715226  0.43723049459116275  0.5430590214539005  1.0000
  O   O5        1.0  0.9601463519629868  0.12677018781682667  0.8977224341127027  1.0000
  O   O6        1.0  0.8499773910870982  0.3718513900308125  0.016157735925195205  1.0000
  O   O7        1.0  0.6872130145857805  0.7317304657575555  0.6912272527719532  1.0000
  O   O8        1.0  0.49862006621835747  0.6497159869374912  0.14828419173574411  1.0000
  O   O9        1.0  0.16999630768493793  0.24366690864140203  0.10189466557573024  1.0000
  O   O10       1.0  0.2980510838514614  0.08051313634367115  0.528777908912583  1.0000
  O   O11       1.0  0.6515278556063131  0.8555731667738183  0.9759891718765878  1.0000
  O   O12       1.0  0.8634713774974002  0.7868071173724962  0.17822436977180167  1.0000
data_image14
_chemical_formula_structural       K4N4O12
_chemical_formula_sum              "K4 N4 O12"
_cell_length_a       5.602235
_cell_length_b       6.405085
_cell_length_c       9.268196
_cell_angle_alpha    90.0
_cell_angle_beta     90.0
_cell_angle_gamma    90.0

_space_group_name_H-M_alt    "P 1"
_space_group_IT_number       1

loop_
  _space_group_symop_operation_xyz
  'x, y, z'

loop_
  _atom_site_type_symbol
  _atom_site_label
  _atom_site_symmetry_multiplicity
  _atom_site_fract_x
  _atom_site_fract_y
  _atom_site_fract_z
  _atom_site_occupancy
  K   K1        1.0  0.9816507083327115  0.19952113130612034  0.2794102663673979  1.0000
  K   K2        1.0  0.42204962707868554  0.3009911995249207  0.8920994532644886  1.0000
  K   K3        1.0  0.2500575773899127  0.7840141414134963  0.9335216345856219  1.0000
  K   K4        1.0  0.570494445623684  0.7262626015036338  0.43811965916093326  1.0000
  N   N1        1.0  0.6599003252176205  0.7752215817529058  0.13616154331602195  1.0000
  N   N2        1.0  0.8466718863583647  0.6540148059377753  0.6617842961250121  1.0000
  N   N3        1.0  0.9613426211528202  0.26978713905329715  0.9711289217921534  1.0000
  N   N4        1.0  0.37191386070480337  0.2825082240554276  0.5242385061219508  1.0000
  O   O1        1.0  0.8621967247576039  0.4608610790184478  0.6629810490077482  1.0000
  O   O2        1.0  0.4246814872556641  0.22002186153273753  0.38765044295347995  1.0000
  O   O3        1.0  0.06510964299814126  0.7494258977443414  0.6077000823706684  1.0000
  O   O4        1.0  0.42374632131824574  0.47212465299955747  0.5648961938060523  1.0000
  O   O5        1.0  0.9881676680011213  0.23435718073114994  0.8414043659560553  1.0000
  O   O6        1.0  0.823239015186045  0.3897892341549852  0.024127235730930563  1.0000
  O   O7        1.0  0.6709514809361257  0.7898362981699582  0.677186547315052  1.0000
  O   O8        1.0  0.48432323674125854  0.6214641764602917  0.16093156002226847  1.0000
  O   O9        1.0  0.15908256734286635  0.18569686221108053  0.048370750836702836  1.0000
  O   O10       1.0  0.28008666657662395  0.1598206767566499  0.6170542259853158  1.0000
  O   O11       1.0  0.5750671047037615  0.9514676490261007  0.07887128764622674  1.0000
  O   O12       1.0  0.8444211859442946  0.753903581293968  0.19141576768917107  1.0000
data_image15
_chemical_formula_structural       K4N4O12
_chemical_formula_sum              "K4 N4 O12"
_cell_length_a       5.602235
_cell_length_b       6.405085
_cell_length_c       9.268196
_cell_angle_alpha    90.0
_cell_angle_beta     90.0
_cell_angle_gamma    90.0

_space_group_name_H-M_alt    "P 1"
_space_group_IT_number       1

loop_
  _space_group_symop_operation_xyz
  'x, y, z'

loop_
  _atom_site_type_symbol
  _atom_site_label
  _atom_site_symmetry_multiplicity
  _atom_site_fract_x
  _atom_site_fract_y
  _atom_site_fract_z
  _atom_site_occupancy
  K   K1        1.0  0.8641343917110254  0.33048548801997574  0.4069986735273985  1.0000
  K   K2        1.0  0.5857955327805224  0.3347739507243869  0.9130847778379034  1.0000
  K   K3        1.0  0.15440471531548527  0.7375576577693529  0.8875541640603037  1.0000
  K   K4        1.0  0.4489808093884952  0.7611466253537071  0.48683212373680845  1.0000
  N   N1        1.0  0.6075661139032958  0.7563770327840885  0.07519032169953102  1.0000
  N   N2        1.0  0.9171215546844569  0.7728392437246198  0.5767171288715524  1.0000
  N   N3        1.0  0.07572057701433979  0.24535046319854595  0.9434614600603337  1.0000
  N   N4        1.0  0.35891459148422444  0.12246156548708498  0.5984468642202772  1.0000
  O   O1        1.0  0.9306129833949716  0.5499493594910883  0.5948212122405038  1.0000
  O   O2        1.0  0.2922380834206133  0.09631238170455887  0.4525648812108471  1.0000
  O   O3        1.0  0.9417485428072132  0.8453327342884196  0.4470394786323756  1.0000
  O   O4        1.0  0.2495761968975292  0.2771879240874557  0.6445752010699917  1.0000
  O   O5        1.0  0.9842893751630482  0.1574018406926914  0.8345340924294572  1.0000
  O   O6        1.0  0.04099985538916427  0.4216648716779222  0.9726768945889476  1.0000
  O   O7        1.0  0.9298386692152357  0.8841589669243912  0.6896590161303982  1.0000
  O   O8        1.0  0.44986861866526723  0.6010755115264558  0.08698987943907216  1.0000
  O   O9        1.0  0.21537677430165136  0.12148455781105123  0.007674412840855016  1.0000
  O   O10       1.0  0.5039791836299923  0.014301201862020578  0.6756955692401545  1.0000
  O   O11       1.0  0.5495047746841164  0.9479845922963112  0.04021487959812434  1.0000
  O   O12       1.0  0.8239516388487549  0.7696279432067508  0.13450916745347546  1.0000
data_image16
_chemical_formula_structural       K4N4O12
_chemical_formula_sum              "K4 N4 O12"
_cell_length_a       5.602235
_cell_length_b       6.405085
_cell_length_c       9.268196
_cell_angle_alpha    90.0
_cell_angle_beta     90.0
_cell_angle_gamma    90.0

_space_group_name_H-M_alt    "P 1"
_space_group_IT_number       1

loop_
  _space_group_symop_operation_xyz
  'x, y, z'

loop_
  _atom_site_type_symbol
  _atom_site_label
  _atom_site_symmetry_multiplicity
  _atom_site_fract_x
  _atom_site_fract_y
  _atom_site_fract_z
  _atom_site_occupancy
  K   K1        1.0  0.8658373848997225  0.2662222298152709  0.34803339764491076  1.0000
  K   K2        1.0  0.4715156887075198  0.3478345807222217  0.9811814830706618  1.0000
  K   K3        1.0  0.14966971357650885  0.8195066003829939  0.8905254239194409  1.0000
  K   K4        1.0  0.3634097667444727  0.6294144896631089  0.45961548862350143  1.0000
  N   N1        1.0  0.706622565516003  0.7261142984552655  0.08721978643033629  1.0000
  N   N2        1.0  0.9392131748226635  0.8110263894313948  0.560979511614923  1.0000
  N   N3        1.0  0.9703595299445145  0.22485217123906276  0.9978229192454583  1.0000
  N   N4        1.0  0.474234972839898  0.1906524193768579  0.5688499898240814  1.0000
  O   O1        1.0  0.9640112649216575  0.6984916294920245  0.6666246630456952  1.0000
  O   O2        1.0  0.48819084434676197  0.28480523786097134  0.43578949906610553  1.0000
  O   O3        1.0  0.779362066810752  0.7255578738991223  0.4607759325941606  1.0000
  O   O4        1.0  0.44995090294355045  0.3174524744736921  0.6799734081757726  1.0000
  O   O5        1.0  0.8305721612423524  0.15538952478641205  0.9026111001472654  1.0000
  O   O6        1.0  0.021923069833901368  0.4309319566906044  0.0006297594756312641  1.0000
  O   O7        1.0  0.06498244586575051  0.9729229538788987  0.5094496551436178  1.0000
  O   O8        1.0  0.5381739978630877  0.743870918712043  0.19023441952372583  1.0000
  O   O9        1.0  0.11069771154543528  0.10835726530084659  0.07488068122540414  1.0000
  O   O10       1.0  0.4623494537250128  0.996465777179434  0.5893946343142047  1.0000
  O   O11       1.0  0.6614464884852145  0.7386625262433405  0.9566198757465519  1.0000
  O   O12       1.0  0.9222065596019937  0.7142263769667619  0.13168711929914148  1.0000
data_image17
_chemical_formula_structural       K4N4O12
_chemical_formula_sum              "K4 N4 O12"
_cell_length_a       5.602235
_cell_length_b       6.405085
_cell_length_c       9.268196
_cell_angle_alpha    90.0
_cell_angle_beta     90.0
_cell_angle_gamma    90.0

_space_group_name_H-M_alt    "P 1"
_space_group_IT_number       1

loop_
  _space_group_symop_operation_xyz
  'x, y, z'

loop_
  _atom_site_type_symbol
  _atom_site_label
  _atom_site_symmetry_multiplicity
  _atom_site_fract_x
  _atom_site_fract_y
  _atom_site_fract_z
  _atom_site_occupancy
  K   K1        1.0  0.9791944040332066  0.30875668351271457  0.309768687239074  1.0000
  K   K2        1.0  0.4380700973381696  0.36438918621849237  0.938033489119772  1.0000
  K   K3        1.0  0.16628646959835472  0.8045299224476095  0.8597576431412595  1.0000
  K   K4        1.0  0.3502952652066563  0.688408598003995  0.4017943674880371  1.0000
  N   N1        1.0  0.753210591638725  0.7944129424906937  0.17492269454523304  1.0000
  N   N2        1.0  0.8483188468320058  0.7184599495495477  0.5735380427922725  1.0000
  N   N3        1.0  0.9506909408978573  0.20589083960144441  0.9471106875329142  1.0000
  N   N4        1.0  0.4713442214730428  0.1707983628787404  0.60463106946616  1.0000
  O   O1        1.0  0.7296150456099824  0.6894149153324669  0.6894835965098607  1.0000
  O   O2        1.0  0.5044655355428458  0.16737359370281849  0.45816920480134077  1.0000
  O   O3        1.0  0.9881994161333507  0.5501119973559413  0.5264910672020352  1.0000
  O   O4        1.0  0.4766557897250854  0.3522323726482276  0.6560184272119958  1.0000
  O   O5        1.0  0.8049812024342562  0.09502077234668693  0.877773394352859  1.0000
  O   O6        1.0  0.9536975533257793  0.41923150895278366  0.9586246530577515  1.0000
  O   O7        1.0  0.8746794769949807  0.9286700183459938  0.5363823662209553  1.0000
  O   O8        1.0  0.6130108933197582  0.904468977003128  0.25112406804904563  1.0000
  O   O9        1.0  0.09144346049741538  0.11105623340405595  0.03354041495921378  1.0000
  O   O10       1.0  0.4545039550862817  0.9881071455152398  0.669094418700927  1.0000
  O   O11       1.0  0.6914124517894665  0.7319271515442919  0.05680209346283897  1.0000
  O   O12       1.0  0.9610891041395311  0.7514260526143793  0.22855679161996897  1.0000
data_image18
_chemical_formula_structural       K4N4O12
_chemical_formula_sum              "K4 N4 O12"
_cell_length_a       5.602235
_cell_length_b       6.405085
_cell_length_c       9.268196
_cell_angle_alpha    90.0
_cell_angle_beta     90.0
_cell_angle_gamma    90.0

_space_group_name_H-M_alt    "P 1"
_space_group_IT_number       1

loop_
  _space_group_symop_operation_xyz
  'x, y, z'

loop_
  _atom_site_type_symbol
  _atom_site_label
  _atom_site_symmetry_multiplicity
  _atom_site_fract_x
  _atom_site_fract_y
  _atom_site_fract_z
  _atom_site_occupancy
  K   K1        1.0  0.997876221189855  0.23668928896380512  0.34015083147503494  1.0000
  K   K2        1.0  0.6009680843265985  0.3394594451225376  0.9223308738123155  1.0000
  K   K3        1.0  0.08875178705865057  0.7018504009133737  0.8167157147726203  1.0000
  K   K4        1.0  0.3471228996598556  0.8652886547565624  0.3861595915349879  1.0000
  N   N1        1.0  0.809007944381073  0.7832948015313077  0.13274236038955325  1.0000
  N   N2        1.0  0.7535605449321293  0.6618817540502141  0.6191841366043546  1.0000
  N   N3        1.0  0.07682976488850593  0.21523898358050944  0.9850246036557719  1.0000
  N   N4        1.0  0.3670042888755962  0.2740289751860683  0.611970523444254  1.0000
  O   O1        1.0  0.6768338422952013  0.6346962352816462  0.7408271245757752  1.0000
  O   O2        1.0  0.37745994418325735  0.20558645819957974  0.4849942506801944  1.0000
  O   O3        1.0  0.8300621419464145  0.4540790560291203  0.5683922387996206  1.0000
  O   O4        1.0  0.3240156422950571  0.4564745090407847  0.6262084905859434  1.0000
  O   O5        1.0  0.9672465442823521  0.08653844045527136  0.8984887827819582  1.0000
  O   O6        1.0  0.048304172163653486  0.4183315253143144  0.960706617978226  1.0000
  O   O7        1.0  0.7298409505014873  0.8330027696888112  0.5520608778964524  1.0000
  O   O8        1.0  0.7796680219622172  0.9757269272656492  0.165171709278191  1.0000
  O   O9        1.0  0.20154717630294097  0.14519710752028117  0.09105128959327935  1.0000
  O   O10       1.0  0.3659964315366466  0.1082381149561404  0.6961111095614837  1.0000
  O   O11       1.0  0.5957201093593077  0.6765052683404238  0.11263533779322178  1.0000
  O   O12       1.0  0.015572062023137656  0.7044126417544422  0.11304105906501216  1.0000
data_image19
_chemical_formula_structural       K4N4O12
_chemical_formula_sum              "K4 N4 O12"
_cell_length_a       5.602235
_cell_length_b       6.405085
_cell_length_c       9.268196
_cell_angle_alpha    90.0
_cell_angle_beta     90.0
_cell_angle_gamma    90.0

_space_group_name_H-M_alt    "P 1"
_space_group_IT_number       1

loop_
  _space_group_symop_operation_xyz
  'x, y, z'

loop_
  _atom_site_type_symbol
  _atom_site_label
  _atom_site_symmetry_multiplicity
  _atom_site_fract_x
  _atom_site_fract_y
  _atom_site_fract_z
  _atom_site_occupancy
  K   K1        1.0  0.8646839500951821  0.3141196545415055  0.3488244798909201  1.0000
  K   K2        1.0  0.6602557614916025  0.3755949369587705  0.9466962262782644  1.0000
  K   K3        1.0  0.1349925358519739  0.7398134105086982  0.8021840289203764  1.0000
  K   K4        1.0  0.35689017977138504  0.84154470286608  0.33383701238762115  1.0000
  N   N1        1.0  0.7599834957162303  0.7887511721647416  0.17801333755572735  1.0000
  N   N2        1.0  0.7497739165160657  0.6974666957039511  0.622775528304527  1.0000
  N   N3        1.0  0.18656845303704125  0.15029243192916708  0.012893854543208016  1.0000
  N   N4        1.0  0.33054798192305235  0.2159025501486754  0.561953343478575  1.0000
  O   O1        1.0  0.5648938204273852  0.7623357813192196  0.6879332366713353  1.0000
  O   O2        1.0  0.3920087732906763  0.22417468438481877  0.43516695149221835  1.0000
  O   O3        1.0  0.828397879208153  0.5355128312480769  0.674133981699719  1.0000
  O   O4        1.0  0.25593601405696975  0.368568399713273  0.6414790332686682  1.0000
  O   O5        1.0  0.9807801714824873  0.060440259445849895  0.9519487505694743  1.0000
  O   O6        1.0  0.22378285201719134  0.34586073818742  0.02712706960033673  1.0000
  O   O7        1.0  0.762761900299936  0.7387370209898855  0.49293002690870763  1.0000
  O   O8        1.0  0.7204656230462232  0.9680182576507959  0.2335045278495167  1.0000
  O   O9        1.0  0.3607384766398206  0.03414391648447054  0.04356043764250139  1.0000
  O   O10       1.0  0.28387826761928303  0.9987831579993347  0.595043617311124  1.0000
  O   O11       1.0  0.5821409493289313  0.7038863888645146  0.1080081253811786  1.0000
  O   O12       1.0  0.9807137566363138  0.721020727287074  0.17830708279901417  1.0000
data_image20
_chemical_formula_structural       K4N4O12
_chemical_formula_sum              "K4 N4 O12"
_cell_length_a       5.602235
_cell_length_b       6.405085
_cell_length_c       9.268196
_cell_angle_alpha    90.0
_cell_angle_beta     90.0
_cell_angle_gamma    90.0

_space_group_name_H-M_alt    "P 1"
_space_group_IT_number       1

loop_
  _space_group_symop_operation_xyz
  'x, y, z'

loop_
  _atom_site_type_symbol
  _atom_site_label
  _atom_site_symmetry_multiplicity
  _atom_site_fract_x
  _atom_site_fract_y
  _atom_site_fract_z
  _atom_site_occupancy
  K   K1        1.0  0.8575649206072307  0.35457752966338807  0.33673413772833777  1.0000
  K   K2        1.0  0.7319883731285274  0.31911009457086126  0.9455643765112088  1.0000
  K   K3        1.0  0.2354690775800316  0.6867680320279355  0.8579220024786403  1.0000
  K   K4        1.0  0.2736606790290282  0.8583738424635137  0.3660111338154886  1.0000
  N   N1        1.0  0.7375530455808104  0.8042748813792486  0.17677444223239067  1.0000
  N   N2        1.0  0.7731091016813025  0.6798603768886443  0.6174769243634946  1.0000
  N   N3        1.0  0.23600771525581107  0.13643285038443517  0.9571988165556743  1.0000
  N   N4        1.0  0.19828587984368928  0.270414990527317  0.5734022517303269  1.0000
  O   O1        1.0  0.6023754595413608  0.7316392758072651  0.7096298573791893  1.0000
  O   O2        1.0  0.24099735786967358  0.31387218794638133  0.43626834227149436  1.0000
  O   O3        1.0  0.9001766755777265  0.5162079633536992  0.6644006038633964  1.0000
  O   O4        1.0  0.35162135702258523  0.3119672183365971  0.6638155156579023  1.0000
  O   O5        1.0  0.03313372193489184  0.048243634737318936  0.943990773654982  1.0000
  O   O6        1.0  0.25739956204459186  0.34294398077093313  0.9821678375368599  1.0000
  O   O7        1.0  0.7267439460547354  0.6919375161521469  0.481522860657571  1.0000
  O   O8        1.0  0.7550655948422095  0.013708015942411889  0.2162893623653406  1.0000
  O   O9        1.0  0.43110455156076216  0.03578163277539371  0.9188106807531505  1.0000
  O   O10       1.0  0.056843873615361584  0.12578533133601197  0.5741370063857028  1.0000
  O   O11       1.0  0.5161062043610917  0.7285682491031208  0.188268567395454  1.0000
  O   O12       1.0  0.9327616355845398  0.6957384342008461  0.15139830182917574  1.0000
data_image21
_chemical_formula_structural       K4N4O12
_chemical_formula_sum              "K4 N4 O12"
_cell_length_a       5.602235
_cell_length_b       6.405085
_cell_length_c       9.268196
_cell_angle_alpha    90.0
_cell_angle_beta     90.0
_cell_angle_gamma    90.0

_space_group_name_H-M_alt    "P 1"
_space_group_IT_number       1

loop_
  _space_group_symop_operation_xyz
  'x, y, z'

loop_
  _atom_site_type_symbol
  _atom_site_label
  _atom_site_symmetry_multiplicity
  _atom_site_fract_x
  _atom_site_fract_y
  _atom_site_fract_z
  _atom_site_occupancy
  K   K1        1.0  0.898106884514022  0.3856713681608264  0.3377383108565353  1.0000
  K   K2        1.0  0.7111978878080645  0.4132996567896092  0.9162880837353836  1.0000
  K   K3        1.0  0.2330891538494437  0.6239986966267751  0.8179784086879347  1.0000
  K   K4        1.0  0.1864699693155463  0.9543747484367185  0.457253321448059  1.0000
  N   N1        1.0  0.6956990745359741  0.776645744185308  0.1282704053085082  1.0000
  N   N2        1.0  0.7217433159614737  0.6816651312926156  0.5651342027763612  1.0000
  N   N3        1.0  0.2480955868054496  0.028314351456855038  0.9504865976708097  1.0000
  N   N4        1.0  0.27811649897967206  0.27229470351598656  0.6365704854945272  1.0000
  O   O1        1.0  0.5807701394579363  0.675695098025472  0.6658919254168313  1.0000
  O   O2        1.0  0.38428632227478476  0.34503057280938754  0.5162731616733555  1.0000
  O   O3        1.0  0.9053414756990228  0.5803943666748955  0.576009480708155  1.0000
  O   O4        1.0  0.39561351519671595  0.2725625232145698  0.7576679633558019  1.0000
  O   O5        1.0  0.08017075479836526  0.9737736853020246  0.8934280806682026  1.0000
  O   O6        1.0  0.27481494711152527  0.21029866338458322  0.011888533443340954  1.0000
  O   O7        1.0  0.6710074340213532  0.7770008903014469  0.4373176373621567  1.0000
  O   O8        1.0  0.7447539785583872  0.974441226588822  0.17371976251330684  1.0000
  O   O9        1.0  0.4829969470655835  0.9282278395458016  0.948149362228666  1.0000
  O   O10       1.0  0.07317641825184906  0.2020346601519561  0.6506640638315624  1.0000
  O   O11       1.0  0.52170147968697  0.6847521560381864  0.21751566390646845  1.0000
  O   O12       1.0  0.8667227045552817  0.6633379501097264  0.06541956445661368  1.0000
data_image22
_chemical_formula_structural       K4N4O12
_chemical_formula_sum              "K4 N4 O12"
_cell_length_a       5.602235
_cell_length_b       6.405085
_cell_length_c       9.268196
_cell_angle_alpha    90.0
_cell_angle_beta     90.0
_cell_angle_gamma    90.0

_space_group_name_H-M_alt    "P 1"
_space_group_IT_number       1

loop_
  _space_group_symop_operation_xyz
  'x, y, z'

loop_
  _atom_site_type_symbol
  _atom_site_label
  _atom_site_symmetry_multiplicity
  _atom_site_fract_x
  _atom_site_fract_y
  _atom_site_fract_z
  _atom_site_occupancy
  K   K1        1.0  0.9566996020664414  0.33435536611769645  0.2699154968617734  1.0000
  K   K2        1.0  0.6727411106492559  0.33041682657612276  0.8813779174930417  1.0000
  K   K3        1.0  0.1155569095443398  0.5538750247115755  0.8655570713058319  1.0000
  K   K4        1.0  0.23640284663610006  0.8598093379901864  0.4483411467487909  1.0000
  N   N1        1.0  0.7987396068002157  0.7905693764147745  0.15316468773297082  1.0000
  N   N2        1.0  0.693381137841711  0.7706577089288285  0.5711453965260779  1.0000
  N   N3        1.0  0.3033237209440975  0.12302104193613621  0.9822408469708444  1.0000
  N   N4        1.0  0.19367940371324144  0.2571339605554944  0.6053692198395655  1.0000
  O   O1        1.0  0.5204560929178861  0.7097564355679092  0.6362555887184119  1.0000
  O   O2        1.0  0.2800335562367653  0.24765337838603843  0.48271725895434875  1.0000
  O   O3        1.0  0.9211421529602696  0.7458850722252475  0.622663785209637  1.0000
  O   O4        1.0  0.36092058538680627  0.3362733103906555  0.6902847937039482  1.0000
  O   O5        1.0  0.11090419317964424  0.1656500573412405  0.9373456928467161  1.0000
  O   O6        1.0  0.40228309472624785  0.2487914295129473  0.066886434657347  1.0000
  O   O7        1.0  0.6957271839056935  0.9118766377752737  0.48080583130042615  1.0000
  O   O8        1.0  0.7787742315744969  0.9849895498054873  0.16593769688045795  1.0000
  O   O9        1.0  0.3211543503650344  0.9355116749473775  0.9812892946760555  1.0000
  O   O10       1.0  0.006487207489000113  0.19394907641073753  0.6562382942184527  1.0000
  O   O11       1.0  0.628235244288609  0.6844673285854326  0.16177122891545212  1.0000
  O   O12       1.0  0.03036004960079497  0.6887554130574969  0.16031127588913027  1.0000
data_image23
_chemical_formula_structural       K4N4O12
_chemical_formula_sum              "K4 N4 O12"
_cell_length_a       5.602235
_cell_length_b       6.405085
_cell_length_c       9.268196
_cell_angle_alpha    90.0
_cell_angle_beta     90.0
_cell_angle_gamma    90.0

_space_group_name_H-M_alt    "P 1"
_space_group_IT_number       1

loop_
  _space_group_symop_operation_xyz
  'x, y, z'

loop_
  _atom_site_type_symbol
  _atom_site_label
  _atom_site_symmetry_multiplicity
  _atom_site_fract_x
  _atom_site_fract_y
  _atom_site_fract_z
  _atom_site_occupancy
  K   K1        1.0  0.926237787579432  0.33095618915412955  0.2257265127273141  1.0000
  K   K2        1.0  0.7062291607830038  0.2533322657048506  0.8761581195470153  1.0000
  K   K3        1.0  0.15058400332038074  0.7069350367132069  0.8632924096962485  1.0000
  K   K4        1.0  0.28476965834268525  0.7583957058717433  0.37500179058125077  1.0000
  N   N1        1.0  0.7850960621741702  0.7412009371810464  0.1647560413555644  1.0000
  N   N2        1.0  0.7362372738316671  0.7911585723159781  0.6202240759728476  1.0000
  N   N3        1.0  0.28151667502700534  0.05762555468690178  0.07124531525547906  1.0000
  N   N4        1.0  0.15618371352901406  0.32952958511392505  0.5897897657257906  1.0000
  O   O1        1.0  0.6030681567221425  0.6527473296461684  0.6992160380254876  1.0000
  O   O2        1.0  0.1745204508633733  0.24025639821791536  0.4760533618065099  1.0000
  O   O3        1.0  0.9572224887544134  0.836116144392663  0.6497097320579438  1.0000
  O   O4        1.0  0.3432690232523259  0.3405770551241738  0.6696363198184102  1.0000
  O   O5        1.0  0.04073337963963258  0.08177786776620409  0.04082319152506342  1.0000
  O   O6        1.0  0.3578992788546348  0.25065776263288553  0.09680572625216666  1.0000
  O   O7        1.0  0.6507919705305607  0.9054322989160135  0.5308858081803006  1.0000
  O   O8        1.0  0.6535266034009114  0.849730856547633  0.24018000796484643  1.0000
  O   O9        1.0  0.3929877170817962  0.9728278737064814  0.9541742721857825  1.0000
  O   O10       1.0  0.9852673136243479  0.42989395268072556  0.6147674372830001  1.0000
  O   O11       1.0  0.6992063612528552  0.6325869945070892  0.07670120058855226  1.0000
  O   O12       1.0  0.01555186657804164  0.7497683373799882  0.1809919176640948  1.0000
data_image24
_chemical_formula_structural       K4N4O12
_chemical_formula_sum              "K4 N4 O12"
_cell_length_a       5.602235
_cell_length_b       6.405085
_cell_length_c       9.268196
_cell_angle_alpha    90.0
_cell_angle_beta     90.0
_cell_angle_gamma    90.0

_space_group_name_H-M_alt    "P 1"
_space_group_IT_number       1

loop_
  _space_group_symop_operation_xyz
  'x, y, z'

loop_
  _atom_site_type_symbol
  _atom_site_label
  _atom_site_symmetry_multiplicity
  _atom_site_fract_x
  _atom_site_fract_y
  _atom_site_fract_z
  _atom_site_occupancy
  K   K1        1.0  0.8270217435900608  0.3250413065567962  0.2920410251891269  1.0000
  K   K2        1.0  0.6663888100312867  0.2732187171838892  0.8536028733577319  1.0000
  K   K3        1.0  0.218845793358424  0.630249805721429  0.8834680294822441  1.0000
  K   K4        1.0  0.29318492407957014  0.7649518013029749  0.37061001277454947  1.0000
  N   N1        1.0  0.8510983689897272  0.774495011716489  0.13628749023310527  1.0000
  N   N2        1.0  0.7235630758237075  0.7897514522550325  0.6240802031380647  1.0000
  N   N3        1.0  0.25089108616075756  0.13363642354393576  0.06238882650709421  1.0000
  N   N4        1.0  0.1911542171897851  0.3066831951963906  0.546968227337403  1.0000
  O   O1        1.0  0.7583746152866294  0.5788500684710387  0.6123941506159681  1.0000
  O   O2        1.0  0.30094653007087935  0.18776831636259433  0.474789594584941  1.0000
  O   O3        1.0  0.871481129129864  0.9102262532229948  0.6899460626219467  1.0000
  O   O4        1.0  0.2015709015806859  0.2832925208061179  0.68137863030639  1.0000
  O   O5        1.0  0.12141148813631662  0.16832882918288572  0.9226737846619754  1.0000
  O   O6        1.0  0.25224828824848833  0.26299938658522104  0.17106951786256763  1.0000
  O   O7        1.0  0.5300180107152779  0.8766664350712525  0.650011156640843  1.0000
  O   O8        1.0  0.8098282833748734  0.9542035029570016  0.17976129368911456  1.0000
  O   O9        1.0  0.3547197700460717  0.9824150057337969  0.08326569788988558  1.0000
  O   O10       1.0  0.060441217389149315  0.42818162648894925  0.47929712898909665  1.0000
  O   O11       1.0  0.6682413411208667  0.6999095484688083  0.05221337865549823  1.0000
  O   O12       1.0  0.049209785936931594  0.6740783099847671  0.15513121632250682  1.0000
data_image25
_chemical_formula_structural       K4N4O12
_chemical_formula_sum              "K4 N4 O12"
_cell_length_a       5.602235
_cell_length_b       6.405085
_cell_length_c       9.268196
_cell_angle_alpha    90.0
_cell_angle_beta     90.0
_cell_angle_gamma    90.0

_space_group_name_H-M_alt    "P 1"
_space_group_IT_number       1

loop_
  _space_group_symop_operation_xyz
  'x, y, z'

loop_
  _atom_site_type_symbol
  _atom_site_label
  _atom_site_symmetry_multiplicity
  _atom_site_fract_x
  _atom_site_fract_y
  _atom_site_fract_z
  _atom_site_occupancy
  K   K1        1.0  0.6920471146523409  0.32514413036631534  0.2750103477412774  1.0000
  K   K2        1.0  0.7301193756602481  0.21197065077686883  0.8109989761010701  1.0000
  K   K3        1.0  0.20075804456650792  0.6113959216816336  0.8768452507133166  1.0000
  K   K4        1.0  0.2920708607677142  0.82966896030986  0.37814300028745235  1.0000
  N   N1        1.0  0.8007547839698629  0.7434464370118922  0.09064775875382904  1.0000
  N   N2        1.0  0.6953428066786818  0.7811406901695469  0.6312011228613846  1.0000
  N   N3        1.0  0.2861518798753749  0.16685360005905253  0.10319796619392574  1.0000
  N   N4        1.0  0.2686049606822498  0.31425952609576036  0.5635456900305217  1.0000
  O   O1        1.0  0.8030770128811031  0.6143750624153962  0.6108013616572806  1.0000
  O   O2        1.0  0.46728390849955304  0.21797148912957276  0.5529407958556299  1.0000
  O   O3        1.0  0.7575570089926539  0.9664346253704874  0.5939500702584155  1.0000
  O   O4        1.0  0.1944515573749208  0.33048054571903085  0.6958595233149963  1.0000
  O   O5        1.0  0.2935970400276059  0.2701393922777237  0.9954147901849242  1.0000
  O   O6        1.0  0.20291110301190635  0.23301128933419454  0.2307787449043046  1.0000
  O   O7        1.0  0.49031924796495086  0.7931690883307427  0.7139563742516715  1.0000
  O   O8        1.0  0.8363523561293981  0.9303578608418969  0.06907226346060805  1.0000
  O   O9        1.0  0.36087710811782653  0.9728188068591603  0.11272676185541575  1.0000
  O   O10       1.0  0.17737343186072407  0.41893432925245083  0.46538491648989777  1.0000
  O   O11       1.0  0.7283718258843283  0.6067308177236652  0.0005522062722530774  1.0000
  O   O12       1.0  0.8553095262874244  0.6880726020497231  0.2383317444341179  1.0000
data_image26
_chemical_formula_structural       K4N4O12
_chemical_formula_sum              "K4 N4 O12"
_cell_length_a       5.602235
_cell_length_b       6.405085
_cell_length_c       9.268196
_cell_angle_alpha    90.0
_cell_angle_beta     90.0
_cell_angle_gamma    90.0

_space_group_name_H-M_alt    "P 1"
_space_group_IT_number       1

loop_
  _space_group_symop_operation_xyz
  'x, y, z'

loop_
  _atom_site_type_symbol
  _atom_site_label
  _atom_site_symmetry_multiplicity
  _atom_site_fract_x
  _atom_site_fract_y
  _atom_site_fract_z
  _atom_site_occupancy
  K   K1        1.0  0.7008381176237837  0.3037011926160712  0.17333580488386818  1.0000
  K   K2        1.0  0.8228646171736257  0.11773758157933571  0.8026105061872529  1.0000
  K   K3        1.0  0.2873850009627941  0.6626374273152443  0.9258283570436585  1.0000
  K   K4        1.0  0.19468250631657574  0.8023447429358213  0.3965228767398729  1.0000
  N   N1        1.0  0.7973597982467001  0.746195302823451  0.05982216686708229  1.0000
  N   N2        1.0  0.6844849354590862  0.7918743244993818  0.6253973578022215  1.0000
  N   N3        1.0  0.2715984960300439  0.17180114127968987  0.13713994517783235  1.0000
  N   N4        1.0  0.271659836085967  0.3446699724595201  0.6328897828735424  1.0000
  O   O1        1.0  0.7973744228339589  0.6590503901210356  0.6994173912574316  1.0000
  O   O2        1.0  0.4343040420405293  0.21641991443282002  0.5960649209103706  1.0000
  O   O3        1.0  0.7425549680677968  0.8772625222386828  0.5109354129594079  1.0000
  O   O4        1.0  0.1903972326744352  0.3574461314033263  0.7677570955793497  1.0000
  O   O5        1.0  0.24850188394284467  0.3489093532014535  0.08747897941342009  1.0000
  O   O6        1.0  0.11568202179433966  0.1283656569875716  0.21927787117553366  1.0000
  O   O7        1.0  0.4769968848710011  0.8935219928942101  0.6698459759915091  1.0000
  O   O8        1.0  0.8776194251020611  0.9256800945338872  0.011004079439215027  1.0000
  O   O9        1.0  0.39486585586375256  0.03112885184564697  0.05944614697885342  1.0000
  O   O10       1.0  0.1865080383970945  0.4605293251911292  0.5288743191830532  1.0000
  O   O11       1.0  0.7925794553888768  0.5875756424507382  0.982141495582824  1.0000
  O   O12       1.0  0.709286014039319  0.7368418553564378  0.19265712379515734  1.0000
data_image27
_chemical_formula_structural       K4N4O12
_chemical_formula_sum              "K4 N4 O12"
_cell_length_a       5.602235
_cell_length_b       6.405085
_cell_length_c       9.268196
_cell_angle_alpha    90.0
_cell_angle_beta     90.0
_cell_angle_gamma    90.0

_space_group_name_H-M_alt    "P 1"
_space_group_IT_number       1

loop_
  _space_group_symop_operation_xyz
  'x, y, z'

loop_
  _atom_site_type_symbol
  _atom_site_label
  _atom_site_symmetry_multiplicity
  _atom_site_fract_x
  _atom_site_fract_y
  _atom_site_fract_z
  _atom_site_occupancy
  K   K1        1.0  0.7735414051558934  0.26226231317636484  0.2504231293832022  1.0000
  K   K2        1.0  0.8630018720415662  0.20762142965060285  0.7695441514220934  1.0000
  K   K3        1.0  0.33264471711837545  0.7843822301780146  0.9644648466052155  1.0000
  K   K4        1.0  0.10020775179764049  0.8098807617498793  0.3980166048606244  1.0000
  N   N1        1.0  0.8539050516504741  0.6425144624182998  0.05122843577876061  1.0000
  N   N2        1.0  0.596376294288748  0.7172765011630852  0.571473783589368  1.0000
  N   N3        1.0  0.27040725951160416  0.21586756994169543  0.13221814678384702  1.0000
  N   N4        1.0  0.28113857518823027  0.37028279839988365  0.6205905078690567  1.0000
  O   O1        1.0  0.7739844995792652  0.7615401197232591  0.6458539320140676  1.0000
  O   O2        1.0  0.45704107304948516  0.2874782726394671  0.5433582223048691  1.0000
  O   O3        1.0  0.6171496114008667  0.6983574125556218  0.4463852258261098  1.0000
  O   O4        1.0  0.30228327582899395  0.42669025864679305  0.7633894739603911  1.0000
  O   O5        1.0  0.22084531074327213  0.396291074980242  0.1644067066211765  1.0000
  O   O6        1.0  0.17720210496880995  0.1006520229595609  0.21597555453302553  1.0000
  O   O7        1.0  0.39096079541545625  0.7268067238913742  0.6211286401044535  1.0000
  O   O8        1.0  0.8350709304824074  0.8010120936689803  0.9760840632803778  1.0000
  O   O9        1.0  0.39982976755037863  0.16213434955767608  0.03819459788060864  1.0000
  O   O10       1.0  0.05425321188670562  0.3857068174403843  0.5789392917983148  1.0000
  O   O11       1.0  0.7392560260851295  0.4770275600329505  0.0002889809823288007  1.0000
  O   O12       1.0  0.8605200000582754  0.6593826433287765  0.19360021947762848  1.0000
data_image28
_chemical_formula_structural       K4N4O12
_chemical_formula_sum              "K4 N4 O12"
_cell_length_a       5.602235
_cell_length_b       6.405085
_cell_length_c       9.268196
_cell_angle_alpha    90.0
_cell_angle_beta     90.0
_cell_angle_gamma    90.0

_space_group_name_H-M_alt    "P 1"
_space_group_IT_number       1

loop_
  _space_group_symop_operation_xyz
  'x, y, z'

loop_
  _atom_site_type_symbol
  _atom_site_label
  _atom_site_symmetry_multiplicity
  _atom_site_fract_x
  _atom_site_fract_y
  _atom_site_fract_z
  _atom_site_occupancy
  K   K1        1.0  0.6903536931950429  0.3430988608158182  0.3359470832145649  1.0000
  K   K2        1.0  0.9022776810897899  0.2542099218182414  0.8504950583258839  1.0000
  K   K3        1.0  0.3728259527732918  0.789364327342067  0.9534315613902026  1.0000
  K   K4        1.0  0.17261613621246452  0.6678160744893396  0.37700279763459216  1.0000
  N   N1        1.0  0.8116837806014153  0.6080561224970894  0.05291271766210928  1.0000
  N   N2        1.0  0.594257143728354  0.8319152657293071  0.5410322583457579  1.0000
  N   N3        1.0  0.23301671010755529  0.2218329239294952  0.10669279576531698  1.0000
  N   N4        1.0  0.261603992734869  0.3003954770591846  0.6021698625309532  1.0000
  O   O1        1.0  0.7731866196080763  0.9555603416144808  0.55428405338313  1.0000
  O   O2        1.0  0.4372774756711426  0.20150558145361835  0.5382321805519855  1.0000
  O   O3        1.0  0.6185062100308928  0.7025586102159526  0.44803812081199923  1.0000
  O   O4        1.0  0.2667082877781999  0.3058420806050824  0.7380846551230222  1.0000
  O   O5        1.0  0.23571769946758733  0.3912052582447826  0.17074936987191225  1.0000
  O   O6        1.0  0.24717927113831767  0.07802014743780503  0.18288818243928673  1.0000
  O   O7        1.0  0.4332899948214938  0.7981621324929753  0.6359809956493634  1.0000
  O   O8        1.0  0.7595903232548546  0.6339893587927701  0.9092448235067295  1.0000
  O   O9        1.0  0.28270343499148265  0.21159596523223528  0.9707136106210841  1.0000
  O   O10       1.0  0.08376804153556505  0.41996886406106265  0.5587465691242745  1.0000
  O   O11       1.0  0.7641273172638912  0.4244621732495646  0.1013964363546936  1.0000
  O   O12       1.0  0.8487690796418552  0.7698385856472953  0.11479536790323229  1.0000
data_image29
_chemical_formula_structural       K4N4O12
_chemical_formula_sum              "K4 N4 O12"
_cell_length_a       5.602235
_cell_length_b       6.405085
_cell_length_c       9.268196
_cell_angle_alpha    90.0
_cell_angle_beta     90.0
_cell_angle_gamma    90.0

_space_group_name_H-M_alt    "P 1"
_space_group_IT_number       1

loop_
  _space_group_symop_operation_xyz
  'x, y, z'

loop_
  _atom_site_type_symbol
  _atom_site_label
  _atom_site_symmetry_multiplicity
  _atom_site_fract_x
  _atom_site_fract_y
  _atom_site_fract_z
  _atom_site_occupancy
  K   K1        1.0  0.7297797636548405  0.2715124842895016  0.3639669240323866  1.0000
  K   K2        1.0  0.8403812305411201  0.1877699124456794  0.8289552156345777  1.0000
  K   K3        1.0  0.273126273319065  0.7723697224956152  0.9035983871915377  1.0000
  K   K4        1.0  0.12972566563306814  0.7295101925752027  0.34981642477010755  1.0000
  N   N1        1.0  0.7639887878863002  0.6653990129526736  0.03069298079682937  1.0000
  N   N2        1.0  0.6635906676962979  0.8420998459850676  0.5649928838191496  1.0000
  N   N3        1.0  0.39503612679364764  0.19735136483941224  0.1575760965031574  1.0000
  N   N4        1.0  0.18968434053113747  0.3004394544486363  0.5949913491696897  1.0000
  O   O1        1.0  0.8223200365514955  0.9880394810144378  0.5757481722791354  1.0000
  O   O2        1.0  0.2115776622020058  0.13891193085192502  0.5126801874893585  1.0000
  O   O3        1.0  0.6984648284300954  0.7190686879635508  0.47063526416198  1.0000
  O   O4        1.0  0.35117456469637864  0.3822966545168345  0.6725847630597704  1.0000
  O   O5        1.0  0.38117883725279944  0.3978165058753397  0.2056471958555215  1.0000
  O   O6        1.0  0.2205526868211841  0.08624622807816036  0.20716011015241564  1.0000
  O   O7        1.0  0.5206654387313545  0.7959484542436572  0.6739603425238122  1.0000
  O   O8        1.0  0.8314627160503499  0.7194251720420843  0.8967663213000474  1.0000
  O   O9        1.0  0.5025158533763323  0.14973270029771107  0.04950463795443483  1.0000
  O   O10       1.0  0.9679050687098771  0.40003158111903364  0.5904490450620049  1.0000
  O   O11       1.0  0.7368605358342691  0.4828463133560397  0.09463128048386364  1.0000
  O   O12       1.0  0.8173232412196667  0.8208034935707875  0.10730738029933284  1.0000
data_image30
_chemical_formula_structural       K4N4O12
_chemical_formula_sum              "K4 N4 O12"
_cell_length_a       5.602235
_cell_length_b       6.405085
_cell_length_c       9.268196
_cell_angle_alpha    90.0
_cell_angle_beta     90.0
_cell_angle_gamma    90.0

_space_group_name_H-M_alt    "P 1"
_space_group_IT_number       1

loop_
  _space_group_symop_operation_xyz
  'x, y, z'

loop_
  _atom_site_type_symbol
  _atom_site_label
  _atom_site_symmetry_multiplicity
  _atom_site_fract_x
  _atom_site_fract_y
  _atom_site_fract_z
  _atom_site_occupancy
  K   K1        1.0  0.8254993753438762  0.15649373293451518  0.32505802426781105  1.0000
  K   K2        1.0  0.8325361455003384  0.19250363385138625  0.7915010387902837  1.0000
  K   K3        1.0  0.29216515398692533  0.7957996130514118  0.8909923362849377  1.0000
  K   K4        1.0  0.14506260525821557  0.7241936261979957  0.4131095915575799  1.0000
  N   N1        1.0  0.7694017283364818  0.7587853385188426  0.043739746812561334  1.0000
  N   N2        1.0  0.6361400217326139  0.841981318147561  0.5524050766221265  1.0000
  N   N3        1.0  0.3026626501224359  0.20731923543624045  0.16213188668951029  1.0000
  N   N4        1.0  0.2489034741001388  0.26203778630394026  0.6122624737251076  1.0000
  O   O1        1.0  0.8201229524637497  0.8239210957080889  0.6140887289169348  1.0000
  O   O2        1.0  0.25576960720607467  0.20683872943176432  0.4824979619286034  1.0000
  O   O3        1.0  0.6027724546007718  0.8923816386978253  0.4241823250400444  1.0000
  O   O4        1.0  0.291709614330121  0.15532167827752782  0.7180321622195268  1.0000
  O   O5        1.0  0.35843526635547024  0.35930021070213364  0.26221645886234013  1.0000
  O   O6        1.0  0.0685285616593905  0.1151785153735706  0.1279124557042579  1.0000
  O   O7        1.0  0.4396233450420173  0.7691018905360644  0.6236121101331598  1.0000
  O   O8        1.0  0.7895675834750246  0.893275549314725  0.9482808949504304  1.0000
  O   O9        1.0  0.4210825489313348  0.19090636740047612  0.06068988575583578  1.0000
  O   O10       1.0  0.20371432511560394  0.45429032436934463  0.6455046897664077  1.0000
  O   O11       1.0  0.8098193612380387  0.5577564544759114  0.022794438990438773  1.0000
  O   O12       1.0  0.7544083177259274  0.8296787098352753  0.1722354383649175  1.0000
data_image31
_chemical_formula_structural       K4N4O12
_chemical_formula_sum              "K4 N4 O12"
_cell_length_a       5.602235
_cell_length_b       6.405085
_cell_length_c       9.268196
_cell_angle_alpha    90.0
_cell_angle_beta     90.0
_cell_angle_gamma    90.0

_space_group_name_H-M_alt    "P 1"
_space_group_IT_number       1

loop_
  _space_group_symop_operation_xyz
  'x, y, z'

loop_
  _atom_site_type_symbol
  _atom_site_label
  _atom_site_symmetry_multiplicity
  _atom_site_fract_x
  _atom_site_fract_y
  _atom_site_fract_z
  _atom_site_occupancy
  K   K1        1.0  0.7144308379547407  0.20218166291954334  0.253912088507439  1.0000
  K   K2        1.0  0.8881192225487112  0.2876642178225216  0.7669811929147555  1.0000
  K   K3        1.0  0.21751567739194205  0.7732103390564841  0.870306388428168  1.0000
  K   K4        1.0  0.14639730013651267  0.6149457390242574  0.4256842197817323  1.0000
  N   N1        1.0  0.7490834958549505  0.7206278244768634  0.08591298072758405  1.0000
  N   N2        1.0  0.7390904061166523  0.7919245938254207  0.6138025728431765  1.0000
  N   N3        1.0  0.21391672363072312  0.3180965457879036  0.07956055180704125  1.0000
  N   N4        1.0  0.3269513992557975  0.24185407986449967  0.6379128137540904  1.0000
  O   O1        1.0  0.9358790337104327  0.8677757466512552  0.65025492369747  1.0000
  O   O2        1.0  0.19815759827428514  0.12138910395638743  0.5560023275366788  1.0000
  O   O3        1.0  0.6549476728342094  0.846119554893224  0.484241645118545  1.0000
  O   O4        1.0  0.41921301314942827  0.18773704465490004  0.744852593896114  1.0000
  O   O5        1.0  0.1440699510587259  0.3914476047868153  0.2131073066453022  1.0000
  O   O6        1.0  0.07681120660815244  0.25443957744609297  0.9880204108292224  1.0000
  O   O7        1.0  0.6072347027626184  0.6962802830192808  0.7148424938360637  1.0000
  O   O8        1.0  0.7291126519446871  0.917753202920644  0.08681441280586714  1.0000
  O   O9        1.0  0.41713639252138035  0.25350592457021137  0.07581025239175765  1.0000
  O   O10       1.0  0.32242421068364435  0.4372702220765052  0.6029775565844311  1.0000
  O   O11       1.0  0.7097301419159275  0.5876585216996112  0.9830071965579045  1.0000
  O   O12       1.0  0.8510158721994886  0.6587502158910296  0.2152319221413212  1.0000
data_image32
_chemical_formula_structural       K4N4O12
_chemical_formula_sum              "K4 N4 O12"
_cell_length_a       5.602235
_cell_length_b       6.405085
_cell_length_c       9.268196
_cell_angle_alpha    90.0
_cell_angle_beta     90.0
_cell_angle_gamma    90.0

_space_group_name_H-M_alt    "P 1"
_space_group_IT_number       1

loop_
  _space_group_symop_operation_xyz
  'x, y, z'

loop_
  _atom_site_type_symbol
  _atom_site_label
  _atom_site_symmetry_multiplicity
  _atom_site_fract_x
  _atom_site_fract_y
  _atom_site_fract_z
  _atom_site_occupancy
  K   K1        1.0  0.6309741978066921  0.22232833878862665  0.30998855296925387  1.0000
  K   K2        1.0  0.8129616345603455  0.31490143860463626  0.7601682316936227  1.0000
  K   K3        1.0  0.3128547354345653  0.8391176293372004  0.9256198008873999  1.0000
  K   K4        1.0  0.2605396250240049  0.7329478749817121  0.4011314546191931  1.0000
  N   N1        1.0  0.7453998125048253  0.6970449758711702  0.09404776472515854  1.0000
  N   N2        1.0  0.7354418353304893  0.8461782466109444  0.5845900621004418  1.0000
  N   N3        1.0  0.18010383740539196  0.20592135025509387  0.14197889727212942  1.0000
  N   N4        1.0  0.3296927341686038  0.19628107715501375  0.5971912028944166  1.0000
  O   O1        1.0  0.9267229160117247  0.9267830535877133  0.5959901259085253  1.0000
  O   O2        1.0  0.27445747306713897  0.07942515486913694  0.4976533149180943  1.0000
  O   O3        1.0  0.7029128976507851  0.7807900382299127  0.4415055271985592  1.0000
  O   O4        1.0  0.212425649516375  0.15581561973376223  0.71778325694298  1.0000
  O   O5        1.0  0.22188337947560868  0.0338793052140255  0.20426889051178065  1.0000
  O   O6        1.0  0.979989138614084  0.2916648247894409  0.11543571169459543  1.0000
  O   O7        1.0  0.6087577655966885  0.7649644562590192  0.6841868712116248  1.0000
  O   O8        1.0  0.6961659500262987  0.8925929456348226  0.03967544458155729  1.0000
  O   O9        1.0  0.3482401666997168  0.278630613853639  0.05061786897607212  1.0000
  O   O10       1.0  0.4521366625118619  0.3626412014816161  0.5542220943072109  1.0000
  O   O11       1.0  0.6015957248586261  0.5470959508304764  0.044956721384826426  1.0000
  O   O12       1.0  0.9508366408067745  0.6524727751337013  0.17261189524052253  1.0000
data_image33
_chemical_formula_structural       K4N4O12
_chemical_formula_sum              "K4 N4 O12"
_cell_length_a       5.602235
_cell_length_b       6.405085
_cell_length_c       9.268196
_cell_angle_alpha    90.0
_cell_angle_beta     90.0
_cell_angle_gamma    90.0

_space_group_name_H-M_alt    "P 1"
_space_group_IT_number       1

loop_
  _space_group_symop_operation_xyz
  'x, y, z'

loop_
  _atom_site_type_symbol
  _atom_site_label
  _atom_site_symmetry_multiplicity
  _atom_site_fract_x
  _atom_site_fract_y
  _atom_site_fract_z
  _atom_site_occupancy
  K   K1        1.0  0.636423217057402  0.2247560726307442  0.3178934974094217  1.0000
  K   K2        1.0  0.8040428976922617  0.4015167989597697  0.7334249934955454  1.0000
  K   K3        1.0  0.3483917172478859  0.8671439318428431  0.9349374902434165  1.0000
  K   K4        1.0  0.13564561318000345  0.7034922720099677  0.3651240424021524  1.0000
  N   N1        1.0  0.8659282704934679  0.672318801984345  0.07542602119970376  1.0000
  N   N2        1.0  0.6477775913541586  0.801317376071641  0.6387289347612682  1.0000
  N   N3        1.0  0.16490306408780675  0.21356096500098426  0.11743480117179517  1.0000
  N   N4        1.0  0.3476007101681937  0.22980527551213287  0.565164661359704  1.0000
  O   O1        1.0  0.8358162386315278  0.8601970636125569  0.7150406423556961  1.0000
  O   O2        1.0  0.3092749732871951  0.06429247483807422  0.4934497448585006  1.0000
  O   O3        1.0  0.669446810676426  0.7448088121324293  0.5021665051103932  1.0000
  O   O4        1.0  0.3165570682547585  0.20635444161070235  0.7032298398000916  1.0000
  O   O5        1.0  0.3446082794739113  0.1392418884781027  0.17907017055604268  1.0000
  O   O6        1.0  0.9744270866961686  0.1604995832083235  0.17847845661753658  1.0000
  O   O7        1.0  0.49075964496979263  0.7482261375110346  0.7111604658547198  1.0000
  O   O8        1.0  0.8475066132538442  0.8605305573408714  0.044294020625216  1.0000
  O   O9        1.0  0.1737754202786341  0.24663922063159108  0.9799664980729446  1.0000
  O   O10       1.0  0.43084481764407134  0.39344775740155186  0.526147584948477  1.0000
  O   O11       1.0  0.6742785248379695  0.5604222157294261  0.11725640256478556  1.0000
  O   O12       1.0  0.10402853661769496  0.5993439563612527  0.09764159297055285  1.0000
data_image34
_chemical_formula_structural       K4N4O12
_chemical_formula_sum              "K4 N4 O12"
_cell_length_a       5.602235
_cell_length_b       6.405085
_cell_length_c       9.268196
_cell_angle_alpha    90.0
_cell_angle_beta     90.0
_cell_angle_gamma    90.0

_space_group_name_H-M_alt    "P 1"
_space_group_IT_number       1

loop_
  _space_group_symop_operation_xyz
  'x, y, z'

loop_
  _atom_site_type_symbol
  _atom_site_label
  _atom_site_symmetry_multiplicity
  _atom_site_fract_x
  _atom_site_fract_y
  _atom_site_fract_z
  _atom_site_occupancy
  K   K1        1.0  0.7672752787799197  0.24015311337189948  0.29103993837809133  1.0000
  K   K2        1.0  0.7728467800305125  0.38052303004414934  0.8245367698531691  1.0000
  K   K3        1.0  0.3019464577857716  0.8095929392257744  0.9029768458484125  1.0000
  K   K4        1.0  0.12973948245378478  0.7521210840823319  0.3602110712499342  1.0000
  N   N1        1.0  0.8904487797213523  0.6751224882261283  0.09764697469785082  1.0000
  N   N2        1.0  0.6926035680699406  0.7731848814447709  0.6286502008606281  1.0000
  N   N3        1.0  0.11456092224026265  0.22081714691756177  0.07169127701340017  1.0000
  N   N4        1.0  0.32672137690751657  0.24802105772926705  0.5952470895530608  1.0000
  O   O1        1.0  0.8359575192418354  0.8115716859959605  0.7296127526224205  1.0000
  O   O2        1.0  0.1522506124818186  0.155523549197551  0.5512856825632337  1.0000
  O   O3        1.0  0.7256276492737006  0.8265108494696206  0.4995604462690301  1.0000
  O   O4        1.0  0.4440730615805153  0.17794911368385855  0.7048840415047687  1.0000
  O   O5        1.0  0.2633112230349673  0.22757838732196312  0.9799513124750899  1.0000
  O   O6        1.0  0.1788396600207234  0.1402522877958032  0.18890301504870166  1.0000
  O   O7        1.0  0.5033839296131153  0.692609480628297  0.6732289824615202  1.0000
  O   O8        1.0  0.8141349003361589  0.8000452810919518  0.0052260381080439  1.0000
  O   O9        1.0  0.8830203768462193  0.2248078833776029  0.05006694721999394  1.0000
  O   O10       1.0  0.4454338360941641  0.37939900300922774  0.5178265133272495  1.0000
  O   O11       1.0  0.7141586766222308  0.562835812319832  0.17685654738792295  1.0000
  O   O12       1.0  0.09851086840515233  0.6234080928527371  0.10508062004367377  1.0000
data_image35
_chemical_formula_structural       K4N4O12
_chemical_formula_sum              "K4 N4 O12"
_cell_length_a       5.602235
_cell_length_b       6.405085
_cell_length_c       9.268196
_cell_angle_alpha    90.0
_cell_angle_beta     90.0
_cell_angle_gamma    90.0

_space_group_name_H-M_alt    "P 1"
_space_group_IT_number       1

loop_
  _space_group_symop_operation_xyz
  'x, y, z'

loop_
  _atom_site_type_symbol
  _atom_site_label
  _atom_site_symmetry_multiplicity
  _atom_site_fract_x
  _atom_site_fract_y
  _atom_site_fract_z
  _atom_site_occupancy
  K   K1        1.0  0.7471982088243394  0.11461771633145287  0.33604940447791326  1.0000
  K   K2        1.0  0.7269386362837702  0.3579066010676812  0.828851826322295  1.0000
  K   K3        1.0  0.2298868066763637  0.8567118822636556  0.8605004177779139  1.0000
  K   K4        1.0  0.2696520472905574  0.7672601142533897  0.39294222736705375  1.0000
  N   N1        1.0  0.9074548897147735  0.6784013908449368  0.11481501931776854  1.0000
  N   N2        1.0  0.6807939674644818  0.7569968994360903  0.5954384467310244  1.0000
  N   N3        1.0  0.20286303767671796  0.2535866775515116  0.07471924160237253  1.0000
  N   N4        1.0  0.25407979336848974  0.2811564232777368  0.60873695194649  1.0000
  O   O1        1.0  0.8246388226197258  0.7317987436887449  0.6955381552937677  1.0000
  O   O2        1.0  0.13921266074542937  0.45049721442078416  0.6088447187656708  1.0000
  O   O3        1.0  0.7326839746051372  0.771441340937603  0.47485900353537236  1.0000
  O   O4        1.0  0.2405251376037265  0.17569331507063615  0.7043188509014664  1.0000
  O   O5        1.0  0.3283252101449001  0.31382478951229137  0.9616016585133231  1.0000
  O   O6        1.0  0.3154858614125534  0.17296679339190513  0.1673032115087696  1.0000
  O   O7        1.0  0.46216861662816355  0.6530456418988417  0.601363483052223  1.0000
  O   O8        1.0  0.8480960635007888  0.7486152657713921  0.9891823209406292  1.0000
  O   O9        1.0  0.9778333969663632  0.26379988406479904  0.054594042659421804  1.0000
  O   O10       1.0  0.336478815366978  0.2158426155872571  0.48798843038768025  1.0000
  O   O11       1.0  0.7109038117618436  0.6001166486488718  0.19427864869334432  1.0000
  O   O12       1.0  0.11959953844024396  0.688019746547621  0.14795289111149715  1.0000
data_image36
_chemical_formula_structural       K4N4O12
_chemical_formula_sum              "K4 N4 O12"
_cell_length_a       5.602235
_cell_length_b       6.405085
_cell_length_c       9.268196
_cell_angle_alpha    90.0
_cell_angle_beta     90.0
_cell_angle_gamma    90.0

_space_group_name_H-M_alt    "P 1"
_space_group_IT_number       1

loop_
  _space_group_symop_operation_xyz
  'x, y, z'

loop_
  _atom_site_type_symbol
  _atom_site_label
  _atom_site_symmetry_multiplicity
  _atom_site_fract_x
  _atom_site_fract_y
  _atom_site_fract_z
  _atom_site_occupancy
  K   K1        1.0  0.7576015124401995  0.16679970236792244  0.33786672126871714  1.0000
  K   K2        1.0  0.652341221091187  0.31475681298301084  0.8270542719297028  1.0000
  K   K3        1.0  0.2370757580391665  0.8471452696733076  0.8689054115776282  1.0000
  K   K4        1.0  0.3289160509743308  0.795394042062668  0.44122215933291914  1.0000
  N   N1        1.0  0.9134452332074017  0.6929007191400458  0.10648478607052533  1.0000
  N   N2        1.0  0.7507377619196449  0.6989619014562385  0.6251502325397679  1.0000
  N   N3        1.0  0.25200893494169746  0.23846292412686987  0.08162483063091819  1.0000
  N   N4        1.0  0.07954378769073456  0.25902803500267113  0.5427316104150635  1.0000
  O   O1        1.0  0.8480236023034916  0.7841334264649167  0.7250351403889845  1.0000
  O   O2        1.0  0.1204575938948087  0.44057906800338986  0.5015587566328111  1.0000
  O   O3        1.0  0.8315339673030377  0.7838632112234023  0.4881841773590648  1.0000
  O   O4        1.0  0.10787749173408034  0.24619087598434639  0.673100476823741  1.0000
  O   O5        1.0  0.387042034688333  0.38276035212707615  0.11669467903386121  1.0000
  O   O6        1.0  0.31203262178070756  0.048609320585639174  0.13061322027990552  1.0000
  O   O7        1.0  0.5350772664538533  0.6252568572744217  0.6071957097177864  1.0000
  O   O8        1.0  0.8224186118600733  0.7021126348630189  0.9736294968937471  1.0000
  O   O9        1.0  0.07597932930189974  0.24393364759258412  0.9640727411533907  1.0000
  O   O10       1.0  0.14870154092121757  0.12649109776943393  0.4516506320268241  1.0000
  O   O11       1.0  0.7636112854557126  0.6919337332343554  0.22487476354045519  1.0000
  O   O12       1.0  0.12254027137092605  0.7139868363345424  0.12527808671064705  1.0000
data_image37
_chemical_formula_structural       K4N4O12
_chemical_formula_sum              "K4 N4 O12"
_cell_length_a       5.602235
_cell_length_b       6.405085
_cell_length_c       9.268196
_cell_angle_alpha    90.0
_cell_angle_beta     90.0
_cell_angle_gamma    90.0

_space_group_name_H-M_alt    "P 1"
_space_group_IT_number       1

loop_
  _space_group_symop_operation_xyz
  'x, y, z'

loop_
  _atom_site_type_symbol
  _atom_site_label
  _atom_site_symmetry_multiplicity
  _atom_site_fract_x
  _atom_site_fract_y
  _atom_site_fract_z
  _atom_site_occupancy
  K   K1        1.0  0.7404709632316391  0.27360259463132913  0.32147056538028373  1.0000
  K   K2        1.0  0.7444164790151881  0.2559902178211513  0.9456182546219866  1.0000
  K   K3        1.0  0.36357615527011505  0.8271431999060325  0.8237482280529461  1.0000
  K   K4        1.0  0.2730895954821001  0.7169762331983884  0.3778625791379805  1.0000
  N   N1        1.0  0.7397880337554239  0.6834997807686408  0.10253898690868243  1.0000
  N   N2        1.0  0.7489613958124663  0.7914404946855281  0.6050842843530894  1.0000
  N   N3        1.0  0.28176943611766314  0.21386994348488975  0.0908446704357786  1.0000
  N   N4        1.0  0.12158731092951913  0.26714688225036026  0.5691854996528576  1.0000
  O   O1        1.0  0.9403153224658859  0.8271188212368832  0.6626179449144418  1.0000
  O   O2        1.0  0.07836250878020246  0.4248531740535781  0.47987657980365794  1.0000
  O   O3        1.0  0.7393816072107197  0.8766811566217682  0.4556803566522902  1.0000
  O   O4        1.0  0.011636966999298393  0.3129890482813955  0.6886677241801126  1.0000
  O   O5        1.0  0.39376229278099323  0.36789539117489467  0.13451690098803115  1.0000
  O   O6        1.0  0.4011116899449474  0.028617142609700746  0.11822450502506676  1.0000
  O   O7        1.0  0.5947969415348275  0.611204944652613  0.640372154834151  1.0000
  O   O8        1.0  0.7323869194139914  0.7472851538026767  0.9672055184511082  1.0000
  O   O9        1.0  0.12509571076477005  0.2102765552108444  0.9812489028582528  1.0000
  O   O10       1.0  0.3001763205480277  0.14548809750284233  0.5380636816987799  1.0000
  O   O11       1.0  0.5775828307521775  0.7433785097822808  0.19296498066181994  1.0000
  O   O12       1.0  0.9158703567640584  0.5612244306220615  0.13095776775101756  1.0000
data_image38
_chemical_formula_structural       K4N4O12
_chemical_formula_sum              "K4 N4 O12"
_cell_length_a       5.602235
_cell_length_b       6.405085
_cell_length_c       9.268196
_cell_angle_alpha    90.0
_cell_angle_beta     90.0
_cell_angle_gamma    90.0

_space_group_name_H-M_alt    "P 1"
_space_group_IT_number       1

loop_
  _space_group_symop_operation_xyz
  'x, y, z'

loop_
  _atom_site_type_symbol
  _atom_site_label
  _atom_site_symmetry_multiplicity
  _atom_site_fract_x
  _atom_site_fract_y
  _atom_site_fract_z
  _atom_site_occupancy
  K   K1        1.0  0.6952809976220975  0.2912921802565876  0.3682824732519035  1.0000
  K   K2        1.0  0.807013434276886  0.25673970407196384  0.8948673991072685  1.0000
  K   K3        1.0  0.40059288503681617  0.8576239620217033  0.760939617647817  1.0000
  K   K4        1.0  0.19541137161651434  0.809613091234946  0.38556681691223876  1.0000
  N   N1        1.0  0.6945646609961129  0.6526614046847358  0.1221461780046306  1.0000
  N   N2        1.0  0.7715256474250878  0.7921253411748511  0.570433535709305  1.0000
  N   N3        1.0  0.2828008268831266  0.1583578809087754  0.11860811371304303  1.0000
  N   N4        1.0  0.1769873387239893  0.2586969108224241  0.570995781714721  1.0000
  O   O1        1.0  0.9840235969048912  0.7464812029213241  0.6061940040071108  1.0000
  O   O2        1.0  0.06612223869281819  0.31908470857443216  0.4663766410652295  1.0000
  O   O3        1.0  0.6856982388852964  0.946234742454346  0.4917648389112114  1.0000
  O   O4        1.0  0.09475182947768568  0.2801468699333323  0.7105533506454218  1.0000
  O   O5        1.0  0.22509123343636037  0.33142348702200186  0.17454971967196187  1.0000
  O   O6        1.0  0.5309060436851257  0.11037374895909438  0.1580974490067535  1.0000
  O   O7        1.0  0.6176021129510567  0.6349214410280684  0.5855216491034061  1.0000
  O   O8        1.0  0.6407663357391856  0.7707465316869715  0.01688172475444509  1.0000
  O   O9        1.0  0.2123503565945466  0.0666079444482358  0.9976948835809439  1.0000
  O   O10       1.0  0.374085760238801  0.17253232772326454  0.5666064912599313  1.0000
  O   O11       1.0  0.6249687800017755  0.7308584274752793  0.24204560979497627  1.0000
  O   O12       1.0  0.7826540479088782  0.48621049240985353  0.10551685814874816  1.0000
data_image39
_chemical_formula_structural       K4N4O12
_chemical_formula_sum              "K4 N4 O12"
_cell_length_a       5.602235
_cell_length_b       6.405085
_cell_length_c       9.268196
_cell_angle_alpha    90.0
_cell_angle_beta     90.0
_cell_angle_gamma    90.0

_space_group_name_H-M_alt    "P 1"
_space_group_IT_number       1

loop_
  _space_group_symop_operation_xyz
  'x, y, z'

loop_
  _atom_site_type_symbol
  _atom_site_label
  _atom_site_symmetry_multiplicity
  _atom_site_fract_x
  _atom_site_fract_y
  _atom_site_fract_z
  _atom_site_occupancy
  K   K1        1.0  0.6780918751376094  0.3315873437279555  0.36246938716784854  1.0000
  K   K2        1.0  0.7719402662136959  0.28934700871369445  0.8664531625930053  1.0000
  K   K3        1.0  0.36268239866319024  0.8141933414416894  0.7960689180772585  1.0000
  K   K4        1.0  0.21458778486886798  0.828796665834021  0.30201370663583443  1.0000
  N   N1        1.0  0.7170211898429732  0.631485417620395  0.13563380919441137  1.0000
  N   N2        1.0  0.7956737501991554  0.7412066081238764  0.5989296753292376  1.0000
  N   N3        1.0  0.29351295063092664  0.17860667643411965  0.11490137593512761  1.0000
  N   N4        1.0  0.21059932565452488  0.29275623214258006  0.5764358110398438  1.0000
  O   O1        1.0  0.8768655780474514  0.680446598353464  0.7185867748338498  1.0000
  O   O2        1.0  0.28861022418308546  0.42469869556940937  0.5058778874271918  1.0000
  O   O3        1.0  0.860454840671558  0.8825914980923502  0.5029778674058698  1.0000
  O   O4        1.0  0.973887821433345  0.24494856959563813  0.5770155681659156  1.0000
  O   O5        1.0  0.18400079363291455  0.2348310031980311  0.2237363602546334  1.0000
  O   O6        1.0  0.5231133514856465  0.17564552712687864  0.09431370119005456  1.0000
  O   O7        1.0  0.5934518124935926  0.6951232675193433  0.5958328039062323  1.0000
  O   O8        1.0  0.524114569870319  0.5906492204438948  0.07756792908459438  1.0000
  O   O9        1.0  0.15032146096657037  0.11437942195956423  0.9932926873918072  1.0000
  O   O10       1.0  0.318925259052109  0.1628384698599619  0.6485313494076076  1.0000
  O   O11       1.0  0.6974516039986352  0.7326148580731203  0.2525330643049966  1.0000
  O   O12       1.0  0.9384575180906466  0.5525966593325854  0.09418165942830067  1.0000
data_image40
_chemical_formula_structural       K4N4O12
_chemical_formula_sum              "K4 N4 O12"
_cell_length_a       5.602235
_cell_length_b       6.405085
_cell_length_c       9.268196
_cell_angle_alpha    90.0
_cell_angle_beta     90.0
_cell_angle_gamma    90.0

_space_group_name_H-M_alt    "P 1"
_space_group_IT_number       1

loop_
  _space_group_symop_operation_xyz
  'x, y, z'

loop_
  _atom_site_type_symbol
  _atom_site_label
  _atom_site_symmetry_multiplicity
  _atom_site_fract_x
  _atom_site_fract_y
  _atom_site_fract_z
  _atom_site_occupancy
  K   K1        1.0  0.680876926611916  0.31541397280154787  0.31211166835824  1.0000
  K   K2        1.0  0.6646927814375164  0.2914450662490114  0.7622667935225056  1.0000
  K   K3        1.0  0.2957516233471293  0.8059834484266462  0.8853061317274691  1.0000
  K   K4        1.0  0.28755666992152995  0.7194734814480763  0.3758875614900342  1.0000
  N   N1        1.0  0.8092218821236498  0.7455532934363097  0.12377431300529348  1.0000
  N   N2        1.0  0.8270520229857402  0.7513514962131574  0.6506035270525701  1.0000
  N   N3        1.0  0.27630591620430406  0.12066085867664371  0.09665075982021909  1.0000
  N   N4        1.0  0.13080873102962265  0.28678356903847413  0.5508911338322794  1.0000
  O   O1        1.0  0.8273619741149218  0.8358421700931847  0.7681886759689561  1.0000
  O   O2        1.0  0.28296538877550237  0.4208169680600991  0.5337367462249628  1.0000
  O   O3        1.0  0.036260974694715016  0.7019241223531102  0.5900250255513113  1.0000
  O   O4        1.0  0.9241046778995413  0.32651136724655333  0.512574446728512  1.0000
  O   O5        1.0  0.3600893139193797  0.047659138893258256  0.21076046855785924  1.0000
  O   O6        1.0  0.39409340498304785  0.09970133774702462  0.9721468005208199  1.0000
  O   O7        1.0  0.6398273876073577  0.7717724991560896  0.5865244793930394  1.0000
  O   O8        1.0  0.6267779048424206  0.7031349564610038  0.0637912540082405  1.0000
  O   O9        1.0  0.04572268111705939  0.20237447716112789  0.08371169315707072  1.0000
  O   O10       1.0  0.1794627376098208  0.1395777445013367  0.6435442230018887  1.0000
  O   O11       1.0  0.8283424721001369  0.8478113386208829  0.24095092303259835  1.0000
  O   O12       1.0  0.9993391126360682  0.6684601439255249  0.05861668248912533  1.0000
data_image41
_chemical_formula_structural       K4N4O12
_chemical_formula_sum              "K4 N4 O12"
_cell_length_a       5.602235
_cell_length_b       6.405085
_cell_length_c       9.268196
_cell_angle_alpha    90.0
_cell_angle_beta     90.0
_cell_angle_gamma    90.0

_space_group_name_H-M_alt    "P 1"
_space_group_IT_number       1

loop_
  _space_group_symop_operation_xyz
  'x, y, z'

loop_
  _atom_site_type_symbol
  _atom_site_label
  _atom_site_symmetry_multiplicity
  _atom_site_fract_x
  _atom_site_fract_y
  _atom_site_fract_z
  _atom_site_occupancy
  K   K1        1.0  0.6192338512637947  0.27079776071696127  0.225114396064682  1.0000
  K   K2        1.0  0.6581335124386501  0.3307250787298938  0.7197701200777274  1.0000
  K   K3        1.0  0.23087637018574614  0.759968655348901  0.8976629250938536  1.0000
  K   K4        1.0  0.34585778891581853  0.8054377514197439  0.38944635735318744  1.0000
  N   N1        1.0  0.8543341815301557  0.6969335180384543  0.12312749220460587  1.0000
  N   N2        1.0  0.747187443814552  0.7773024569069855  0.7150996487707152  1.0000
  N   N3        1.0  0.24434641759107817  0.19457949734407518  0.08383479993085041  1.0000
  N   N4        1.0  0.25495772977630704  0.24643432841175344  0.5733878104912167  1.0000
  O   O1        1.0  0.730642466267705  0.9168106910686599  0.7982189946833468  1.0000
  O   O2        1.0  0.3759373653100144  0.30368577175580996  0.4753086454051522  1.0000
  O   O3        1.0  0.9398792376208056  0.6745240909979631  0.6786088147945765  1.0000
  O   O4        1.0  0.02832861193208913  0.2681441932743461  0.5634494805466566  1.0000
  O   O5        1.0  0.3391101018024873  0.01688699935063459  0.13646386747486616  1.0000
  O   O6        1.0  0.39368435212539543  0.3176207090408588  0.0021888060862953473  1.0000
  O   O7        1.0  0.5547482082143609  0.7419200499557551  0.6461670583244107  1.0000
  O   O8        1.0  0.7024822825733059  0.6722208568183131  0.027114854234959167  1.0000
  O   O9        1.0  0.034419143312319336  0.21554308079299847  0.09364326819071  1.0000
  O   O10       1.0  0.3340978293854595  0.11158781944908579  0.6791658208722056  1.0000
  O   O11       1.0  0.8237960988375694  0.8483819116192882  0.21138176289519664  1.0000
  O   O12       1.0  0.01992986684931064  0.585720073944697  0.140391998823488  1.0000
data_image42
_chemical_formula_structural       K4N4O12
_chemical_formula_sum              "K4 N4 O12"
_cell_length_a       5.602235
_cell_length_b       6.405085
_cell_length_c       9.268196
_cell_angle_alpha    90.0
_cell_angle_beta     90.0
_cell_angle_gamma    90.0

_space_group_name_H-M_alt    "P 1"
_space_group_IT_number       1

loop_
  _space_group_symop_operation_xyz
  'x, y, z'

loop_
  _atom_site_type_symbol
  _atom_site_label
  _atom_site_symmetry_multiplicity
  _atom_site_fract_x
  _atom_site_fract_y
  _atom_site_fract_z
  _atom_site_occupancy
  K   K1        1.0  0.7184266052444193  0.2797371037777522  0.2577153400268405  1.0000
  K   K2        1.0  0.6627943781363521  0.29437708711302213  0.7237371746177358  1.0000
  K   K3        1.0  0.19703458443305635  0.8233974469239926  0.8798121821345375  1.0000
  K   K4        1.0  0.4203409123583848  0.7958645094813809  0.4283027437642447  1.0000
  N   N1        1.0  0.9242654183725979  0.7033585606493625  0.1615558141871585  1.0000
  N   N2        1.0  0.7043876041117394  0.7770285977008672  0.6987772545552146  1.0000
  N   N3        1.0  0.12955052706412495  0.20799030963711695  0.03333492404870375  1.0000
  N   N4        1.0  0.21698492242893286  0.21313900772555103  0.545446638659927  1.0000
  O   O1        1.0  0.7303323032141372  0.925141397262791  0.7784123856342001  1.0000
  O   O2        1.0  0.3821917690021539  0.273077905910548  0.4635333633037059  1.0000
  O   O3        1.0  0.88579299957765  0.6728406313691472  0.6429083723179753  1.0000
  O   O4        1.0  0.010163891378082601  0.2569880782997453  0.516954795945  1.0000
  O   O5        1.0  0.25533306668346556  0.13854406657145152  0.154891288091769  1.0000
  O   O6        1.0  0.2733847991982237  0.3314740702793342  0.9541175159644482  1.0000
  O   O7        1.0  0.49972393079642796  0.6912441922167265  0.7023127524137451  1.0000
  O   O8        1.0  0.9059779843256125  0.6235862417356017  0.03945138361019955  1.0000
  O   O9        1.0  0.9360120936440457  0.13316783517229822  0.019696997924397497  1.0000
  O   O10       1.0  0.28643134766159917  0.09052840105385108  0.6555740878222883  1.0000
  O   O11       1.0  0.7255094617205878  0.7432638678742738  0.22321142284733964  1.0000
  O   O12       1.0  0.14043698948680206  0.7406013387552588  0.207511446153084  1.0000
data_image43
_chemical_formula_structural       K4N4O12
_chemical_formula_sum              "K4 N4 O12"
_cell_length_a       5.602235
_cell_length_b       6.405085
_cell_length_c       9.268196
_cell_angle_alpha    90.0
_cell_angle_beta     90.0
_cell_angle_gamma    90.0

_space_group_name_H-M_alt    "P 1"
_space_group_IT_number       1

loop_
  _space_group_symop_operation_xyz
  'x, y, z'

loop_
  _atom_site_type_symbol
  _atom_site_label
  _atom_site_symmetry_multiplicity
  _atom_site_fract_x
  _atom_site_fract_y
  _atom_site_fract_z
  _atom_site_occupancy
  K   K1        1.0  0.7185678038805385  0.31497941636607374  0.2368987865497294  1.0000
  K   K2        1.0  0.6654869558033755  0.2636677564056996  0.8169875935370513  1.0000
  K   K3        1.0  0.23546528010115916  0.8782047005938196  0.9036044059415548  1.0000
  K   K4        1.0  0.42944846467325365  0.7768227052016367  0.4641325411863672  1.0000
  N   N1        1.0  0.9065527862611787  0.680649002576756  0.1451412171209974  1.0000
  N   N2        1.0  0.6886204815777192  0.6957009466960653  0.6965758432275165  1.0000
  N   N3        1.0  0.1468184365058457  0.25114827978970305  0.02215116348418733  1.0000
  N   N4        1.0  0.2049205669851457  0.20560060509036815  0.49771323383581906  1.0000
  O   O1        1.0  0.7547711054359831  0.8955633005385671  0.688309533314209  1.0000
  O   O2        1.0  0.37130668073611184  0.3558119985509715  0.46171529043103526  1.0000
  O   O3        1.0  0.7684607195787088  0.5665836063521973  0.595209078735629  1.0000
  O   O4        1.0  0.00951924146949179  0.1931367892762046  0.4528426671528392  1.0000
  O   O5        1.0  0.2048678848530846  0.31892112541141093  0.15053158040064796  1.0000
  O   O6        1.0  0.2657460200854993  0.31590750358904235  0.9099672494302949  1.0000
  O   O7        1.0  0.5631504923096498  0.6287929366059904  0.7900606418521839  1.0000
  O   O8        1.0  0.8078165267305575  0.5747951108901251  0.05071631585656214  1.0000
  O   O9        1.0  0.9661625939519647  0.13231508499801634  0.026356934693679168  1.0000
  O   O10       1.0  0.31857944197465016  0.08541047272263314  0.5832200914362173  1.0000
  O   O11       1.0  0.7633702773001911  0.8067464786629753  0.22351389299233335  1.0000
  O   O12       1.0  0.138630988715305  0.7058578979303501  0.17431984685647595  1.0000
data_image44
_chemical_formula_structural       K4N4O12
_chemical_formula_sum              "K4 N4 O12"
_cell_length_a       5.602235
_cell_length_b       6.405085
_cell_length_c       9.268196
_cell_angle_alpha    90.0
_cell_angle_beta     90.0
_cell_angle_gamma    90.0

_space_group_name_H-M_alt    "P 1"
_space_group_IT_number       1

loop_
  _space_group_symop_operation_xyz
  'x, y, z'

loop_
  _atom_site_type_symbol
  _atom_site_label
  _atom_site_symmetry_multiplicity
  _atom_site_fract_x
  _atom_site_fract_y
  _atom_site_fract_z
  _atom_site_occupancy
  K   K1        1.0  0.6442977333992551  0.2823365786641729  0.2713732547106246  1.0000
  K   K2        1.0  0.7202632968499201  0.2245121520578702  0.7447155545972268  1.0000
  K   K3        1.0  0.3401877506674666  0.7675808225353189  0.004833924803917287  1.0000
  K   K4        1.0  0.28633689001569473  0.8220368966984958  0.45946742570467025  1.0000
  N   N1        1.0  0.8256144354408013  0.7122407437434677  0.1755597222227018  1.0000
  N   N2        1.0  0.8600256484075183  0.6849884608088165  0.7128375015139651  1.0000
  N   N3        1.0  0.15832595112963324  0.23979112287059734  0.9883823932175552  1.0000
  N   N4        1.0  0.13471289583771395  0.27931270965975147  0.4787358139884874  1.0000
  O   O1        1.0  0.9402631260760462  0.8626851230395106  0.7470346834077493  1.0000
  O   O2        1.0  0.17030913246749035  0.4424120490735062  0.40578155108879416  1.0000
  O   O3        1.0  0.030429182095370252  0.5398385078793805  0.6951748653092061  1.0000
  O   O4        1.0  0.9427142394283984  0.17104405152161326  0.429046096188388  1.0000
  O   O5        1.0  0.2681179100953858  0.23594461247360157  0.11516718462980058  1.0000
  O   O6        1.0  0.2783010044225328  0.30289991723946147  0.8674389749039575  1.0000
  O   O7        1.0  0.6526014230989601  0.6458318841579599  0.657244645090722  1.0000
  O   O8        1.0  0.6560586725627268  0.5952946839441888  0.12354280982249691  1.0000
  O   O9        1.0  0.9357659756111243  0.20403736545834225  0.9896770964547985  1.0000
  O   O10       1.0  0.33502470332630785  0.23882074217017568  0.5406516014485656  1.0000
  O   O11       1.0  0.811309926854173  0.9312520958286422  0.16944172345774677  1.0000
  O   O12       1.0  0.02887355670277758  0.6706914278935633  0.22566595771183195  1.0000
data_image45
_chemical_formula_structural       K4N4O12
_chemical_formula_sum              "K4 N4 O12"
_cell_length_a       5.602235
_cell_length_b       6.405085
_cell_length_c       9.268196
_cell_angle_alpha    90.0
_cell_angle_beta     90.0
_cell_angle_gamma    90.0

_space_group_name_H-M_alt    "P 1"
_space_group_IT_number       1

loop_
  _space_group_symop_operation_xyz
  'x, y, z'

loop_
  _atom_site_type_symbol
  _atom_site_label
  _atom_site_symmetry_multiplicity
  _atom_site_fract_x
  _atom_site_fract_y
  _atom_site_fract_z
  _atom_site_occupancy
  K   K1        1.0  0.6534141777248637  0.2789281452834513  0.19165551907121892  1.0000
  K   K2        1.0  0.7418000271090865  0.21064538702582544  0.7093256482700887  1.0000
  K   K3        1.0  0.296181499358557  0.7130881612038945  0.038679154200709935  1.0000
  K   K4        1.0  0.2560838622183505  0.805451923761727  0.4588167139276967  1.0000
  N   N1        1.0  0.7252200061379818  0.7160391837669265  0.22331316554742123  1.0000
  N   N2        1.0  0.9663537588258657  0.7604753226267926  0.7173209607460443  1.0000
  N   N3        1.0  0.18316276996684164  0.23798484175168858  0.9815517560051821  1.0000
  N   N4        1.0  0.14450633802710655  0.25749530564071893  0.4308831042049733  1.0000
  O   O1        1.0  0.13489126645066762  0.848809731848448  0.7712719508670549  1.0000
  O   O2        1.0  0.06631123854474352  0.4502180193791344  0.4758668800138061  1.0000
  O   O3        1.0  0.9067141049082956  0.5635823244533869  0.7306028916300181  1.0000
  O   O4        1.0  0.9729118897376684  0.10367936505366465  0.4496396764140602  1.0000
  O   O5        1.0  0.2863837691272592  0.11566069588544235  0.06743182710967388  1.0000
  O   O6        1.0  0.3272517120912976  0.3543020343508199  0.8863482096041243  1.0000
  O   O7        1.0  0.8372326420315113  0.8489716434662767  0.6257405192908024  1.0000
  O   O8        1.0  0.5742813382096386  0.7080300820054072  0.33176436632882644  1.0000
  O   O9        1.0  0.9939929041678589  0.3281456173887931  0.02309167666595613  1.0000
  O   O10       1.0  0.38761615424291174  0.23280559649710972  0.47198479387673686  1.0000
  O   O11       1.0  0.7637350292659724  0.8918035922675654  0.14365084938035863  1.0000
  O   O12       1.0  0.8704848866872902  0.5633129903271488  0.19122106482197035  1.0000
data_image46
_chemical_formula_structural       K4N4O12
_chemical_formula_sum              "K4 N4 O12"
_cell_length_a       5.602235
_cell_length_b       6.405085
_cell_length_c       9.268196
_cell_angle_alpha    90.0
_cell_angle_beta     90.0
_cell_angle_gamma    90.0

_space_group_name_H-M_alt    "P 1"
_space_group_IT_number       1

loop_
  _space_group_symop_operation_xyz
  'x, y, z'

loop_
  _atom_site_type_symbol
  _atom_site_label
  _atom_site_symmetry_multiplicity
  _atom_site_fract_x
  _atom_site_fract_y
  _atom_site_fract_z
  _atom_site_occupancy
  K   K1        1.0  0.7446796599384974  0.25574170690436054  0.15162591211898385  1.0000
  K   K2        1.0  0.7097094026625083  0.2434377446646438  0.7362651959733404  1.0000
  K   K3        1.0  0.30424376584696583  0.6845432320740519  0.000480685941298485  1.0000
  K   K4        1.0  0.15794635051371902  0.7810588982973213  0.46932462537553643  1.0000
  N   N1        1.0  0.8176385543168235  0.7162654580939207  0.22119343050249612  1.0000
  N   N2        1.0  0.870452596616624  0.8159938162117369  0.735822986502789  1.0000
  N   N3        1.0  0.2593076516577394  0.22451057740457622  0.9672038274974667  1.0000
  N   N4        1.0  0.13247030405974503  0.25157962994016925  0.48675747155922183  1.0000
  O   O1        1.0  0.0938456643256996  0.8580581307960305  0.7699189347971767  1.0000
  O   O2        1.0  0.9704150138494698  0.3731597550968623  0.5536361820093366  1.0000
  O   O3        1.0  0.7430618593916238  0.6848953593788198  0.8161194106539551  1.0000
  O   O4        1.0  0.08932750878377083  0.18929123201719927  0.35737990381285806  1.0000
  O   O5        1.0  0.21028924167494234  0.07376501249957847  0.035981647211433376  1.0000
  O   O6        1.0  0.4714584175712222  0.32343172204996107  0.9418714017223879  1.0000
  O   O7        1.0  0.7851617230299517  0.890109764163042  0.614971012587285  1.0000
  O   O8        1.0  0.6648124797135615  0.6949072024227815  0.33287893423812087  1.0000
  O   O9        1.0  0.06506291031786408  0.3400322147217  0.9010542561985032  1.0000
  O   O10       1.0  0.2899170294629174  0.16008707975375566  0.5574527154537032  1.0000
  O   O11       1.0  0.7250405822938623  0.8061796304631473  0.11216779992850955  1.0000
  O   O12       1.0  0.04099435515239458  0.6876481495663597  0.2254091642683704  1.0000
data_image47
_chemical_formula_structural       K4N4O12
_chemical_formula_sum              "K4 N4 O12"
_cell_length_a       5.602235
_cell_length_b       6.405085
_cell_length_c       9.268196
_cell_angle_alpha    90.0
_cell_angle_beta     90.0
_cell_angle_gamma    90.0

_space_group_name_H-M_alt    "P 1"
_space_group_IT_number       1

loop_
  _space_group_symop_operation_xyz
  'x, y, z'

loop_
  _atom_site_type_symbol
  _atom_site_label
  _atom_site_symmetry_multiplicity
  _atom_site_fract_x
  _atom_site_fract_y
  _atom_site_fract_z
  _atom_site_occupancy
  K   K1        1.0  0.8440410220583336  0.2679030897827602  0.16927572784538622  1.0000
  K   K2        1.0  0.6448680706313984  0.2164416848947275  0.7974333375821089  1.0000
  K   K3        1.0  0.3481837392433868  0.7421983991021025  0.9732541244415538  1.0000
  K   K4        1.0  0.25512761257669025  0.6866299237397706  0.5497054194961876  1.0000
  N   N1        1.0  0.8676270204843185  0.7329622046046683  0.21676512653124141  1.0000
  N   N2        1.0  0.7350726066738406  0.7447851663657779  0.7336893727182987  1.0000
  N   N3        1.0  0.2122967191771658  0.27963869890519877  0.9442160450631985  1.0000
  N   N4        1.0  0.13533873298823007  0.290254861848075  0.42668936044232153  1.0000
  O   O1        1.0  0.9339936135658292  0.8471744002559091  0.7908202043435607  1.0000
  O   O2        1.0  0.942938491897233  0.38650212764631464  0.41602292112670936  1.0000
  O   O3        1.0  0.6652619966307887  0.5717097786837566  0.7748402084164148  1.0000
  O   O4        1.0  0.18583059642902788  0.1523087439456016  0.3392490003827233  1.0000
  O   O5        1.0  0.14874941752361903  0.0894612721814899  0.9668980937326388  1.0000
  O   O6        1.0  0.369572841209666  0.35473685927925225  0.04738335647583125  1.0000
  O   O7        1.0  0.5900856501050715  0.8354827472071453  0.6480505436788567  1.0000
  O   O8        1.0  0.6845265679675004  0.7214125172429965  0.2934734670569554  1.0000
  O   O9        1.0  0.1794051389042662  0.37916721688318844  0.8266206914308497  1.0000
  O   O10       1.0  0.24813917158050902  0.30348753325346756  0.5419596857643145  1.0000
  O   O11       1.0  0.8130065754195415  0.7831565593822015  0.07289793955622245  1.0000
  O   O12       1.0  0.07141475547273002  0.7462769312447279  0.25900672662155033  1.0000
data_image48
_chemical_formula_structural       K4N4O12
_chemical_formula_sum              "K4 N4 O12"
_cell_length_a       5.602235
_cell_length_b       6.405085
_cell_length_c       9.268196
_cell_angle_alpha    90.0
_cell_angle_beta     90.0
_cell_angle_gamma    90.0

_space_group_name_H-M_alt    "P 1"
_space_group_IT_number       1

loop_
  _space_group_symop_operation_xyz
  'x, y, z'

loop_
  _atom_site_type_symbol
  _atom_site_label
  _atom_site_symmetry_multiplicity
  _atom_site_fract_x
  _atom_site_fract_y
  _atom_site_fract_z
  _atom_site_occupancy
  K   K1        1.0  0.6922999573930512  0.2537035190061792  0.19281677465759947  1.0000
  K   K2        1.0  0.6347551367053105  0.22027757461525163  0.7532156670125653  1.0000
  K   K3        1.0  0.3010321189800115  0.8793442135737152  0.9800168986848524  1.0000
  K   K4        1.0  0.22503214475435915  0.6534286897941238  0.5621280148150821  1.0000
  N   N1        1.0  0.8870695590210699  0.7209509669365112  0.2229054989883906  1.0000
  N   N2        1.0  0.8201501142543894  0.7393562374527468  0.68409822313022  1.0000
  N   N3        1.0  0.21941333786204542  0.36118374019016247  0.945834125479474  1.0000
  N   N4        1.0  0.1799558708818898  0.17810170298628986  0.45423668315225463  1.0000
  O   O1        1.0  0.004402034492553035  0.841949403418503  0.7399131753709558  1.0000
  O   O2        1.0  0.9874567873567635  0.21393054407281203  0.5107837988873959  1.0000
  O   O3        1.0  0.676850239999919  0.6074436804739166  0.7776684828877708  1.0000
  O   O4        1.0  0.17339095243572866  0.09321512116180684  0.3361275494314905  1.0000
  O   O5        1.0  0.06982472395961314  0.24550103581974508  0.999529699709433  1.0000
  O   O6        1.0  0.4514492903100521  0.35394075613703885  0.9936963844951018  1.0000
  O   O7        1.0  0.7233430691042959  0.812002879038494  0.5695039026773445  1.0000
  O   O8        1.0  0.6964887758578239  0.6446485884071967  0.2762604101829377  1.0000
  O   O9        1.0  0.17378694553682938  0.4999373189804304  0.8553092568836772  1.0000
  O   O10       1.0  0.3591714801381778  0.18388554035775695  0.5299726669541959  1.0000
  O   O11       1.0  0.8823035926131025  0.8659842356014311  0.13683082198746124  1.0000
  O   O12       1.0  0.0832528929059797  0.6238814590612475  0.26715974781439433  1.0000
data_image49
_chemical_formula_structural       K4N4O12
_chemical_formula_sum              "K4 N4 O12"
_cell_length_a       5.602235
_cell_length_b       6.405085
_cell_length_c       9.268196
_cell_angle_alpha    90.0
_cell_angle_beta     90.0
_cell_angle_gamma    90.0

_space_group_name_H-M_alt    "P 1"
_space_group_IT_number       1

loop_
  _space_group_symop_operation_xyz
  'x, y, z'

loop_
  _atom_site_type_symbol
  _atom_site_label
  _atom_site_symmetry_multiplicity
  _atom_site_fract_x
  _atom_site_fract_y
  _atom_site_fract_z
  _atom_site_occupancy
  K   K1        1.0  0.68466859737585  0.14178806125240095  0.27746658495564785  1.0000
  K   K2        1.0  0.7224975063750607  0.34332259061743076  0.7135747706912422  1.0000
  K   K3        1.0  0.38675602094958206  0.9222745410130199  0.0272940058859063  1.0000
  K   K4        1.0  0.21746844483901337  0.5898815806627726  0.4797290877693083  1.0000
  N   N1        1.0  0.9550767267006491  0.6642918105762882  0.1921312963239583  1.0000
  N   N2        1.0  0.6604217062082762  0.7860637638798442  0.7396050748419455  1.0000
  N   N3        1.0  0.1730657103969271  0.41026650615085625  0.9226900253373568  1.0000
  N   N4        1.0  0.22513290572357625  0.14394124412134202  0.44559816019937065  1.0000
  O   O1        1.0  0.7486659751397662  0.9734739008103508  0.7802797877664321  1.0000
  O   O2        1.0  0.02646401406814447  0.17179809162221427  0.48428603114032237  1.0000
  O   O3        1.0  0.5346029176819641  0.7026225098633535  0.8369504928125795  1.0000
  O   O4        1.0  0.27657128854554225  0.9767433643426189  0.37477717516951314  1.0000
  O   O5        1.0  0.9941577521406858  0.3082253935001401  0.9422706982780596  1.0000
  O   O6        1.0  0.3406173065660749  0.41998964324026367  0.010485785476349152  1.0000
  O   O7        1.0  0.6893535699719466  0.7038297083141176  0.6182197080914285  1.0000
  O   O8        1.0  0.8159411124853058  0.5846764413327267  0.29962508498814366  1.0000
  O   O9        1.0  0.1374653875858407  0.5531527570730707  0.8186761262145105  1.0000
  O   O10       1.0  0.383849082425914  0.2404639054614951  0.5204331206818527  1.0000
  O   O11       1.0  0.8710409100982786  0.7815533316619673  0.09874003873485183  1.0000
  O   O12       1.0  0.15576638877364668  0.5893552468181222  0.19178881238122847  1.0000
data_image50
_chemical_formula_structural       K4N4O12
_chemical_formula_sum              "K4 N4 O12"
_cell_length_a       5.602235
_cell_length_b       6.405085
_cell_length_c       9.268196
_cell_angle_alpha    90.0
_cell_angle_beta     90.0
_cell_angle_gamma    90.0

_space_group_name_H-M_alt    "P 1"
_space_group_IT_number       1

loop_
  _space_group_symop_operation_xyz
  'x, y, z'

loop_
  _atom_site_type_symbol
  _atom_site_label
  _atom_site_symmetry_multiplicity
  _atom_site_fract_x
  _atom_site_fract_y
  _atom_site_fract_z
  _atom_site_occupancy
  K   K1        1.0  0.8297424926058892  0.11379154448416755  0.25143567822179724  1.0000
  K   K2        1.0  0.7840114869525135  0.36473117373230374  0.6887079119543494  1.0000
  K   K3        1.0  0.2795012892577126  0.9159814521543449  0.05032328853981361  1.0000
  K   K4        1.0  0.07902484816228277  0.6857935473786085  0.5411294691006782  1.0000
  N   N1        1.0  0.8998087927142334  0.6388378800461891  0.2095049002761244  1.0000
  N   N2        1.0  0.6611856632281112  0.8649243168625782  0.7124006685839227  1.0000
  N   N3        1.0  0.16445894263632635  0.3576531707313118  0.9350956475507741  1.0000
  N   N4        1.0  0.3010058947064864  0.10708682988172354  0.4506411099946559  1.0000
  O   O1        1.0  0.5981160782971793  0.019821192767235818  0.7723007609215438  1.0000
  O   O2        1.0  0.11169457061418453  0.18692885261064796  0.47819616647581853  1.0000
  O   O3        1.0  0.6248888280538467  0.6831268323020782  0.760070998398488  1.0000
  O   O4        1.0  0.3441755799803625  0.9773123571147958  0.3315564859876853  1.0000
  O   O5        1.0  0.9988958734545879  0.2619868739421818  0.006473529462793559  1.0000
  O   O6        1.0  0.3754989476907865  0.2544815482618189  0.9551713958298952  1.0000
  O   O7        1.0  0.6978664226786653  0.8531389393781375  0.5599461960981482  1.0000
  O   O8        1.0  0.7843506947787704  0.47704818329188736  0.2602269890748313  1.0000
  O   O9        1.0  0.09944264169991465  0.5080172425578834  0.8782215959205432  1.0000
  O   O10       1.0  0.5005847865190511  0.1888978433918264  0.5113611278241996  1.0000
  O   O11       1.0  0.8178015247595734  0.7630953160313294  0.1163695539266338  1.0000
  O   O12       1.0  0.1101876440314864  0.6638261079558837  0.258886056422982  1.0000
data_image51
_chemical_formula_structural       K4N4O12
_chemical_formula_sum              "K4 N4 O12"
_cell_length_a       5.602235
_cell_length_b       6.405085
_cell_length_c       9.268196
_cell_angle_alpha    90.0
_cell_angle_beta     90.0
_cell_angle_gamma    90.0

_space_group_name_H-M_alt    "P 1"
_space_group_IT_number       1

loop_
  _space_group_symop_operation_xyz
  'x, y, z'

loop_
  _atom_site_type_symbol
  _atom_site_label
  _atom_site_symmetry_multiplicity
  _atom_site_fract_x
  _atom_site_fract_y
  _atom_site_fract_z
  _atom_site_occupancy
  K   K1        1.0  0.856612782894548  0.0819972038713252  0.2793991575987512  1.0000
  K   K2        1.0  0.7114448326545422  0.35379256198084813  0.7131221202814543  1.0000
  K   K3        1.0  0.3642553494089252  0.7784255281700596  0.04038152221242914  1.0000
  K   K4        1.0  0.1468751452644295  0.703036732083187  0.6306015859215003  1.0000
  N   N1        1.0  0.7948161339454629  0.661338258613627  0.2094895958647815  1.0000
  N   N2        1.0  0.629221805632644  0.8896892838535837  0.6896712627337463  1.0000
  N   N3        1.0  0.20844047973427715  0.32938739091429314  0.9114325064720674  1.0000
  N   N4        1.0  0.34590689955418386  0.14939180321011825  0.4169427996920794  1.0000
  O   O1        1.0  0.45688910370121516  0.9863812416092201  0.7150589480507453  1.0000
  O   O2        1.0  0.1566799974630928  0.10360286036080125  0.48322521957035347  1.0000
  O   O3        1.0  0.796272248790338  0.8927723933717506  0.7889304923045  1.0000
  O   O4        1.0  0.4054173856887531  0.056486480406882075  0.29467904786510046  1.0000
  O   O5        1.0  0.013679313319747258  0.22538087767329124  0.9096857606037096  1.0000
  O   O6        1.0  0.3566475853504744  0.28030132779478234  0.004766394462693224  1.0000
  O   O7        1.0  0.6856969269742437  0.8134725754175123  0.5531119107733502  1.0000
  O   O8        1.0  0.5815927143725468  0.609271395305446  0.2721968313059514  1.0000
  O   O9        1.0  0.18065917899425124  0.48178290581170313  0.8209070996380887  1.0000
  O   O10       1.0  0.4530701647007582  0.3281868327658712  0.4358584153535225  1.0000
  O   O11       1.0  0.7823567272983468  0.7316127853695399  0.07527527605017911  1.0000
  O   O12       1.0  0.9739097354594579  0.6787279543197398  0.2809421674700074  1.0000
data_image52
_chemical_formula_structural       K4N4O12
_chemical_formula_sum              "K4 N4 O12"
_cell_length_a       5.602235
_cell_length_b       6.405085
_cell_length_c       9.268196
_cell_angle_alpha    90.0
_cell_angle_beta     90.0
_cell_angle_gamma    90.0

_space_group_name_H-M_alt    "P 1"
_space_group_IT_number       1

loop_
  _space_group_symop_operation_xyz
  'x, y, z'

loop_
  _atom_site_type_symbol
  _atom_site_label
  _atom_site_symmetry_multiplicity
  _atom_site_fract_x
  _atom_site_fract_y
  _atom_site_fract_z
  _atom_site_occupancy
  K   K1        1.0  0.8292159607614186  0.17973498282878467  0.25233130333851717  1.0000
  K   K2        1.0  0.7849446045325336  0.34586620214885155  0.6889271459310441  1.0000
  K   K3        1.0  0.29959676700503113  0.7954720093723435  0.01504084183325682  1.0000
  K   K4        1.0  0.22127747879584028  0.7343614409376062  0.5170313002293517  1.0000
  N   N1        1.0  0.8427021668197647  0.6279973677300598  0.23342858208354914  1.0000
  N   N2        1.0  0.6398169514219343  0.8592795774090288  0.6738622847638457  1.0000
  N   N3        1.0  0.21719698972369392  0.2696726423715379  0.9414375132659326  1.0000
  N   N4        1.0  0.2500797455913506  0.2098262463406125  0.48057905688093516  1.0000
  O   O1        1.0  0.4431267959053239  0.9603372749627148  0.7410033555304592  1.0000
  O   O2        1.0  0.03147273949396667  0.22697769639606072  0.5151107302940451  1.0000
  O   O3        1.0  0.81005989372582  0.9128247725752513  0.7592601479752755  1.0000
  O   O4        1.0  0.26385310700034914  0.08133349483513186  0.364642065120274  1.0000
  O   O5        1.0  0.08350369340879925  0.11484910178606708  0.9384174435503515  1.0000
  O   O6        1.0  0.35339938946694005  0.30582275259068314  0.043216489357755794  1.0000
  O   O7        1.0  0.6305858607582324  0.6990295123317427  0.6288777074557009  1.0000
  O   O8        1.0  0.6290562241789502  0.5451015479210609  0.19942403012625232  1.0000
  O   O9        1.0  0.20474851979362127  0.3569453130882551  0.8037614561679736  1.0000
  O   O10       1.0  0.44060773253773533  0.3180418574840773  0.5126680172504551  1.0000
  O   O11       1.0  0.9273864131608787  0.7596993618514098  0.14479182652271957  1.0000
  O   O12       1.0  0.9155690786091449  0.6290600700964437  0.3624131444592033  1.0000
data_image53
_chemical_formula_structural       K4N4O12
_chemical_formula_sum              "K4 N4 O12"
_cell_length_a       5.602235
_cell_length_b       6.405085
_cell_length_c       9.268196
_cell_angle_alpha    90.0
_cell_angle_beta     90.0
_cell_angle_gamma    90.0

_space_group_name_H-M_alt    "P 1"
_space_group_IT_number       1

loop_
  _space_group_symop_operation_xyz
  'x, y, z'

loop_
  _atom_site_type_symbol
  _atom_site_label
  _atom_site_symmetry_multiplicity
  _atom_site_fract_x
  _atom_site_fract_y
  _atom_site_fract_z
  _atom_site_occupancy
  K   K1        1.0  0.8431918293600902  0.14254220221623232  0.2367589753981528  1.0000
  K   K2        1.0  0.644978467733268  0.32675200385257785  0.7783878709602338  1.0000
  K   K3        1.0  0.37352447189423826  0.8294883925419212  0.9952447089067276  1.0000
  K   K4        1.0  0.2090152235906293  0.6669334748789523  0.4636488705281325  1.0000
  N   N1        1.0  0.7752238945267103  0.5843909708522403  0.25501156712769807  1.0000
  N   N2        1.0  0.6402778727633961  0.8200171466738458  0.7065552832400264  1.0000
  N   N3        1.0  0.17959571274127406  0.3849033891485731  0.9636230135463387  1.0000
  N   N4        1.0  0.39558613671606424  0.21206947249703906  0.43131751843188293  1.0000
  O   O1        1.0  0.42840361657504267  0.892664253033191  0.7097977446147736  1.0000
  O   O2        1.0  0.17488178763922302  0.17875430802354655  0.49539805949704185  1.0000
  O   O3        1.0  0.792927837590091  0.8302728179915415  0.8043976916631012  1.0000
  O   O4        1.0  0.3837547983574805  0.14194298254740195  0.30607258949123334  1.0000
  O   O5        1.0  0.9737508412209832  0.33880245993555824  0.0012282104869745236  1.0000
  O   O6        1.0  0.35153186907944944  0.25415574003070557  0.9912271595320653  1.0000
  O   O7        1.0  0.744960081435631  0.7963139639450235  0.5721115047538992  1.0000
  O   O8        1.0  0.5635835647609349  0.5521213326924277  0.1798310515849863  1.0000
  O   O9        1.0  0.1697612301231219  0.5238330326076509  0.8660551227743588  1.0000
  O   O10       1.0  0.5535987981879953  0.3721448011275455  0.4594765760776121  1.0000
  O   O11       1.0  0.8810868194364403  0.7514735294102134  0.2522440346206522  1.0000
  O   O12       1.0  0.8385955210583995  0.46750944627240937  0.3514043839792195  1.0000
data_image54
_chemical_formula_structural       K4N4O12
_chemical_formula_sum              "K4 N4 O12"
_cell_length_a       5.602235
_cell_length_b       6.405085
_cell_length_c       9.268196
_cell_angle_alpha    90.0
_cell_angle_beta     90.0
_cell_angle_gamma    90.0

_space_group_name_H-M_alt    "P 1"
_space_group_IT_number       1

loop_
  _space_group_symop_operation_xyz
  'x, y, z'

loop_
  _atom_site_type_symbol
  _atom_site_label
  _atom_site_symmetry_multiplicity
  _atom_site_fract_x
  _atom_site_fract_y
  _atom_site_fract_z
  _atom_site_occupancy
  K   K1        1.0  0.7366278669536718  0.07008141051699679  0.24195840776145405  1.0000
  K   K2        1.0  0.7262324228850117  0.46209206066968894  0.760065373351433  1.0000
  K   K3        1.0  0.27262403763951565  0.7553190497815512  0.03094129028364502  1.0000
  K   K4        1.0  0.3130259498589328  0.6063820708457623  0.5202989465192858  1.0000
  N   N1        1.0  0.7838662382541237  0.5972324774160636  0.24905379584474932  1.0000
  N   N2        1.0  0.7350669342172073  0.9161529505161031  0.684779134922961  1.0000
  N   N3        1.0  0.18597924864288104  0.37291356422842625  0.9140300826519188  1.0000
  N   N4        1.0  0.2910529078756987  0.16160966224405948  0.44240525470562214  1.0000
  O   O1        1.0  0.5336388007989776  0.857718033852662  0.618569031882239  1.0000
  O   O2        1.0  0.09428966489571144  0.21717527936942138  0.5153808014579558  1.0000
  O   O3        1.0  0.7246347334959374  0.011140177970866416  0.7930052127057899  1.0000
  O   O4        1.0  0.25988144333566443  0.04667483256738474  0.3275910259513346  1.0000
  O   O5        1.0  0.9977345767707458  0.31989784844835656  0.9490239500100216  1.0000
  O   O6        1.0  0.363981872522593  0.26850685457408763  0.970188306509292  1.0000
  O   O7        1.0  0.9205279863571115  0.9116715277646779  0.6044595961152252  1.0000
  O   O8        1.0  0.5712008839697352  0.7051246313918857  0.2948390613705477  1.0000
  O   O9        1.0  0.1807662692950207  0.5429401296105094  0.8320489152624457  1.0000
  O   O10       1.0  0.4996749483553993  0.2201218515721694  0.46461497794858725  1.0000
  O   O11       1.0  0.8932718002806924  0.6587073696817226  0.14455885332869997  1.0000
  O   O12       1.0  0.8655844966221189  0.47519766520539825  0.3396174665224372  1.0000
data_image55
_chemical_formula_structural       K4N4O12
_chemical_formula_sum              "K4 N4 O12"
_cell_length_a       5.602235
_cell_length_b       6.405085
_cell_length_c       9.268196
_cell_angle_alpha    90.0
_cell_angle_beta     90.0
_cell_angle_gamma    90.0

_space_group_name_H-M_alt    "P 1"
_space_group_IT_number       1

loop_
  _space_group_symop_operation_xyz
  'x, y, z'

loop_
  _atom_site_type_symbol
  _atom_site_label
  _atom_site_symmetry_multiplicity
  _atom_site_fract_x
  _atom_site_fract_y
  _atom_site_fract_z
  _atom_site_occupancy
  K   K1        1.0  0.7068351008504662  0.1340375200092859  0.2528155650373507  1.0000
  K   K2        1.0  0.7312156539290641  0.3533767666204423  0.7297690000421558  1.0000
  K   K3        1.0  0.27805442939911684  0.7862595576120446  0.05506778369321669  1.0000
  K   K4        1.0  0.31811465073853956  0.6587260106091726  0.5497646264905456  1.0000
  N   N1        1.0  0.753367898313967  0.6440125482611686  0.26254181278491484  1.0000
  N   N2        1.0  0.742297043005828  0.9013188911251356  0.6955936288301903  1.0000
  N   N3        1.0  0.30914860120293924  0.2854281994654531  0.9262319500770303  1.0000
  N   N4        1.0  0.20620445365801365  0.19337565692100178  0.36972962934139947  1.0000
  O   O1        1.0  0.6700622049151691  0.9145104213361719  0.570886342466062  1.0000
  O   O2        1.0  0.9614015285042466  0.20940204233880486  0.42248173977849973  1.0000
  O   O3        1.0  0.5839765943622839  0.9852456547630959  0.7893547358389735  1.0000
  O   O4        1.0  0.23616353973336324  0.11646673956806892  0.25634438456113773  1.0000
  O   O5        1.0  0.1994289741335762  0.11861205235908112  0.9159958157261424  1.0000
  O   O6        1.0  0.4683061582530309  0.34684739038250323  0.028274786332304735  1.0000
  O   O7        1.0  0.9351549885577176  0.8574025532703897  0.7484738715951156  1.0000
  O   O8        1.0  0.5243902819884996  0.6440546137012981  0.2700781903266951  1.0000
  O   O9        1.0  0.24167850571764224  0.3974895842567411  0.8027302467475887  1.0000
  O   O10       1.0  0.3818753078903345  0.25203081763145047  0.44276511911682964  1.0000
  O   O11       1.0  0.8851161615528819  0.5636830537804833  0.1868602807350166  1.0000
  O   O12       1.0  0.8431263519014586  0.7600070775961765  0.3706236659673019  1.0000
data_image56
_chemical_formula_structural       K4N4O12
_chemical_formula_sum              "K4 N4 O12"
_cell_length_a       5.602235
_cell_length_b       6.405085
_cell_length_c       9.268196
_cell_angle_alpha    90.0
_cell_angle_beta     90.0
_cell_angle_gamma    90.0

_space_group_name_H-M_alt    "P 1"
_space_group_IT_number       1

loop_
  _space_group_symop_operation_xyz
  'x, y, z'

loop_
  _atom_site_type_symbol
  _atom_site_label
  _atom_site_symmetry_multiplicity
  _atom_site_fract_x
  _atom_site_fract_y
  _atom_site_fract_z
  _atom_site_occupancy
  K   K1        1.0  0.7590338581195418  0.14418373475905027  0.18951766851118074  1.0000
  K   K2        1.0  0.8331404492488187  0.3614257393353687  0.7562552985210085  1.0000
  K   K3        1.0  0.2529588066074206  0.6171764400691719  0.07981893374217676  1.0000
  K   K4        1.0  0.21713044850112195  0.7453490153189308  0.5130646115843588  1.0000
  N   N1        1.0  0.8309415516649733  0.658490380919802  0.2807193705962088  1.0000
  N   N2        1.0  0.5889246535611039  0.8091093732391903  0.7018576056950828  1.0000
  N   N3        1.0  0.38532253765236185  0.3429949202808276  0.8766832427978205  1.0000
  N   N4        1.0  0.1537125969491302  0.2837195204254133  0.42167529067530385  1.0000
  O   O1        1.0  0.5611174513340353  0.948370465564675  0.5924041624913454  1.0000
  O   O2        1.0  0.9557870713510666  0.2998268318098366  0.48901896530345496  1.0000
  O   O3        1.0  0.41361102679180684  0.7764424096058828  0.779352391925363  1.0000
  O   O4        1.0  0.21760062378047085  0.14054388981163074  0.331127530283403  1.0000
  O   O5        1.0  0.2493781595876898  0.21596562888001108  0.9441802834986326  1.0000
  O   O6        1.0  0.5817051903529276  0.42647688462845273  0.9337978530903439  1.0000
  O   O7        1.0  0.7957316759230809  0.7464877016609857  0.7339284070886333  1.0000
  O   O8        1.0  0.6096512763291435  0.6452211222557647  0.34841452266712986  1.0000
  O   O9        1.0  0.30664327473084757  0.3752440392592292  0.7374106133004389  1.0000
  O   O10       1.0  0.3405388840043475  0.3473157516449138  0.46799187212550736  1.0000
  O   O11       1.0  0.9239222917659959  0.5220628192556792  0.21125686730635926  1.0000
  O   O12       1.0  0.9459026202048819  0.8131016975209207  0.33136007396307926  1.0000
data_image57
_chemical_formula_structural       K4N4O12
_chemical_formula_sum              "K4 N4 O12"
_cell_length_a       5.602235
_cell_length_b       6.405085
_cell_length_c       9.268196
_cell_angle_alpha    90.0
_cell_angle_beta     90.0
_cell_angle_gamma    90.0

_space_group_name_H-M_alt    "P 1"
_space_group_IT_number       1

loop_
  _space_group_symop_operation_xyz
  'x, y, z'

loop_
  _atom_site_type_symbol
  _atom_site_label
  _atom_site_symmetry_multiplicity
  _atom_site_fract_x
  _atom_site_fract_y
  _atom_site_fract_z
  _atom_site_occupancy
  K   K1        1.0  0.6886559814367991  0.11061757634033798  0.18763962852492339  1.0000
  K   K2        1.0  0.9274083188473391  0.2974652028497451  0.7052240897913652  1.0000
  K   K3        1.0  0.1915185829449965  0.6263396227154825  0.10599154764656964  1.0000
  K   K4        1.0  0.18082957675849567  0.8889967079501234  0.539972005627462  1.0000
  N   N1        1.0  0.7148932241600716  0.6734170266256678  0.2646597534964887  1.0000
  N   N2        1.0  0.6020589848735929  0.7837175359533208  0.712455110410463  1.0000
  N   N3        1.0  0.39912852321471826  0.2340913921525121  0.8979018974594272  1.0000
  N   N4        1.0  0.3133290813439067  0.3234221537191725  0.42201359006176914  1.0000
  O   O1        1.0  0.568223664049583  0.9745742056402319  0.6964810675853581  1.0000
  O   O2        1.0  0.13953434432268264  0.46941066903859713  0.4486662529609463  1.0000
  O   O3        1.0  0.43221585136841156  0.667961226058045  0.7608470095699842  1.0000
  O   O4        1.0  0.26803516705806074  0.17214006070178017  0.3365055291315106  1.0000
  O   O5        1.0  0.22708207645628042  0.27298891783656426  0.9961005528167541  1.0000
  O   O6        1.0  0.6102809106413111  0.2433248589474247  0.9045813313995114  1.0000
  O   O7        1.0  0.8071251427318357  0.6781180141431324  0.7162063939927907  1.0000
  O   O8        1.0  0.5229397273215399  0.7677469503993548  0.3046938703389965  1.0000
  O   O9        1.0  0.3047097480046049  0.29568026518429885  0.7652288688119145  1.0000
  O   O10       1.0  0.5315482063864039  0.36744812698489626  0.46166574260538734  1.0000
  O   O11       1.0  0.6920499034924048  0.5335176363475543  0.1829895267881601  1.0000
  O   O12       1.0  0.9151848932897645  0.7445427272638229  0.31205935222584796  1.0000
data_image58
_chemical_formula_structural       K4N4O12
_chemical_formula_sum              "K4 N4 O12"
_cell_length_a       5.602235
_cell_length_b       6.405085
_cell_length_c       9.268196
_cell_angle_alpha    90.0
_cell_angle_beta     90.0
_cell_angle_gamma    90.0

_space_group_name_H-M_alt    "P 1"
_space_group_IT_number       1

loop_
  _space_group_symop_operation_xyz
  'x, y, z'

loop_
  _atom_site_type_symbol
  _atom_site_label
  _atom_site_symmetry_multiplicity
  _atom_site_fract_x
  _atom_site_fract_y
  _atom_site_fract_z
  _atom_site_occupancy
  K   K1        1.0  0.6422307473711947  0.17963429335911746  0.18805952025233857  1.0000
  K   K2        1.0  0.7905576670441735  0.27220195129537345  0.6493238028204267  1.0000
  K   K3        1.0  0.13125194201623108  0.5924305820072211  0.06658546240861149  1.0000
  K   K4        1.0  0.12526161095772054  0.8752075472036718  0.552471315239603  1.0000
  N   N1        1.0  0.6527075477177655  0.6966089842542071  0.2436648583287435  1.0000
  N   N2        1.0  0.717280778241064  0.7770386547250561  0.7030820033701114  1.0000
  N   N3        1.0  0.3976376196485902  0.1592371673003701  0.9442501324506356  1.0000
  N   N4        1.0  0.4199119220509693  0.3775482957771413  0.45591056475560565  1.0000
  O   O1        1.0  0.7306277853589753  0.914880834249993  0.5824883304113943  1.0000
  O   O2        1.0  0.4186780109854189  0.5224023496936587  0.5515531374768954  1.0000
  O   O3        1.0  0.5684121410510588  0.8264399326532276  0.7814244650290975  1.0000
  O   O4        1.0  0.24085994758394635  0.2619301653277565  0.43170731950757957  1.0000
  O   O5        1.0  0.23658476407452075  0.14673172678199092  0.051362856850377  1.0000
  O   O6        1.0  0.6287463846995877  0.12035246569866917  0.9477271991046551  1.0000
  O   O7        1.0  0.8555953681395849  0.6263267881054528  0.7238891086729478  1.0000
  O   O8        1.0  0.43944733396755503  0.7142289472588668  0.27828929568744837  1.0000
  O   O9        1.0  0.35223285849435926  0.2952307950385723  0.8413958886363718  1.0000
  O   O10       1.0  0.6182010133681122  0.3712875448680236  0.3856276815812652  1.0000
  O   O11       1.0  0.7122444315366577  0.5979770027866299  0.13626414791091163  1.0000
  O   O12       1.0  0.8094772882828175  0.803464518666614  0.3323392923682985  1.0000
data_image59
_chemical_formula_structural       K4N4O12
_chemical_formula_sum              "K4 N4 O12"
_cell_length_a       5.602235
_cell_length_b       6.405085
_cell_length_c       9.268196
_cell_angle_alpha    90.0
_cell_angle_beta     90.0
_cell_angle_gamma    90.0

_space_group_name_H-M_alt    "P 1"
_space_group_IT_number       1

loop_
  _space_group_symop_operation_xyz
  'x, y, z'

loop_
  _atom_site_type_symbol
  _atom_site_label
  _atom_site_symmetry_multiplicity
  _atom_site_fract_x
  _atom_site_fract_y
  _atom_site_fract_z
  _atom_site_occupancy
  K   K1        1.0  0.7063960840343741  0.12784608073269843  0.24305049764274536  1.0000
  K   K2        1.0  0.8077606552893525  0.3453999662432677  0.7408589096193373  1.0000
  K   K3        1.0  0.18908591634295097  0.5506443998776714  0.9323539428966697  1.0000
  K   K4        1.0  0.2250243019066586  0.9471855675361439  0.5044855567848909  1.0000
  N   N1        1.0  0.7343538782908245  0.6454022478920836  0.21698730236368827  1.0000
  N   N2        1.0  0.6830233196656373  0.7750627157863539  0.7523455445580142  1.0000
  N   N3        1.0  0.3168065399219797  0.13311425269689964  0.9068232696416719  1.0000
  N   N4        1.0  0.30624491175955404  0.4375706189984017  0.4951268573172399  1.0000
  O   O1        1.0  0.6726577688759611  0.8953555248698403  0.6562648594419961  1.0000
  O   O2        1.0  0.3133752041253468  0.5655715918242881  0.5928150375730564  1.0000
  O   O3        1.0  0.5148856432129538  0.7192573487111488  0.8414919073111767  1.0000
  O   O4        1.0  0.10785085990946985  0.4082859849554133  0.4397742570481914  1.0000
  O   O5        1.0  0.1765821234247128  0.13466290920720636  0.027092602370049512  1.0000
  O   O6        1.0  0.53681924312836  0.16094215228698996  0.9021568065241706  1.0000
  O   O7        1.0  0.9209087617745022  0.7346811331875925  0.780035894857  1.0000
  O   O8        1.0  0.5112382496697141  0.6849752771508295  0.2386011067992109  1.0000
  O   O9        1.0  0.17677194272734228  0.1487447652720365  0.7826319739812867  1.0000
  O   O10       1.0  0.5300001995743588  0.3820908274657667  0.4364904451341552  1.0000
  O   O11       1.0  0.8039811226936974  0.47410338881484076  0.15227948049466586  1.0000
  O   O12       1.0  0.893289563931946  0.7848611318347358  0.2612126269212412  1.0000
data_image60
_chemical_formula_structural       K4N4O12
_chemical_formula_sum              "K4 N4 O12"
_cell_length_a       5.602235
_cell_length_b       6.405085
_cell_length_c       9.268196
_cell_angle_alpha    90.0
_cell_angle_beta     90.0
_cell_angle_gamma    90.0

_space_group_name_H-M_alt    "P 1"
_space_group_IT_number       1

loop_
  _space_group_symop_operation_xyz
  'x, y, z'

loop_
  _atom_site_type_symbol
  _atom_site_label
  _atom_site_symmetry_multiplicity
  _atom_site_fract_x
  _atom_site_fract_y
  _atom_site_fract_z
  _atom_site_occupancy
  K   K1        1.0  0.6786613916954852  0.17219940727081431  0.22495488719262316  1.0000
  K   K2        1.0  0.726697008532932  0.3509539270235731  0.736513877175393  1.0000
  K   K3        1.0  0.21505101718518005  0.6512237200956958  0.9988541390037948  1.0000
  K   K4        1.0  0.15271272095421534  0.9104679654995891  0.48512355945459507  1.0000
  N   N1        1.0  0.851185964349827  0.6768941793918775  0.1981123098821775  1.0000
  N   N2        1.0  0.7021786614466066  0.7835637091224539  0.7316197492240808  1.0000
  N   N3        1.0  0.29167947962260143  0.15718147862757367  0.9456434580307482  1.0000
  N   N4        1.0  0.31546014059736494  0.31060495687488643  0.4798973603986348  1.0000
  O   O1        1.0  0.5932465521584558  0.8600210728334333  0.6107387512161753  1.0000
  O   O2        1.0  0.30636639229000817  0.4774227984107657  0.5527363755633373  1.0000
  O   O3        1.0  0.626124123681074  0.7654144044155711  0.8662827458920024  1.0000
  O   O4        1.0  0.0799570366472846  0.28845308971432027  0.44461260200993225  1.0000
  O   O5        1.0  0.07523534380353651  0.19881182576623624  0.9698330378459322  1.0000
  O   O6        1.0  0.49763294291840354  0.2119943276343232  0.9985215481356866  1.0000
  O   O7        1.0  0.9321348526120565  0.7971022905919053  0.7127623015709775  1.0000
  O   O8        1.0  0.6779829736933589  0.6799026051031457  0.30474774487384054  1.0000
  O   O9        1.0  0.30057126019957914  0.03278467528382832  0.8371547507940021  1.0000
  O   O10       1.0  0.5044134753866474  0.22085723358649734  0.47097427783474244  1.0000
  O   O11       1.0  0.8436179002812236  0.5077446652141355  0.1190096085372778  1.0000
  O   O12       1.0  0.9927101263071221  0.8337085981364795  0.17822846317556748  1.0000
data_image61
_chemical_formula_structural       K4N4O12
_chemical_formula_sum              "K4 N4 O12"
_cell_length_a       5.602235
_cell_length_b       6.405085
_cell_length_c       9.268196
_cell_angle_alpha    90.0
_cell_angle_beta     90.0
_cell_angle_gamma    90.0

_space_group_name_H-M_alt    "P 1"
_space_group_IT_number       1

loop_
  _space_group_symop_operation_xyz
  'x, y, z'

loop_
  _atom_site_type_symbol
  _atom_site_label
  _atom_site_symmetry_multiplicity
  _atom_site_fract_x
  _atom_site_fract_y
  _atom_site_fract_z
  _atom_site_occupancy
  K   K1        1.0  0.7010950483238533  0.22985053155588667  0.2777126555502338  1.0000
  K   K2        1.0  0.7296325613381707  0.18143823050378205  0.6918455187764884  1.0000
  K   K3        1.0  0.23528277313779772  0.7105190515107521  0.901905420119661  1.0000
  K   K4        1.0  0.21601758946550637  0.8136473288305216  0.4693907016545378  1.0000
  N   N1        1.0  0.8417996825962625  0.7372008001784606  0.28059199882575575  1.0000
  N   N2        1.0  0.7330033410847098  0.7059240142398403  0.761068236020439  1.0000
  N   N3        1.0  0.2110516536569213  0.26784543822094925  0.9184166819848338  1.0000
  N   N4        1.0  0.2921547006992409  0.33725016562958954  0.44316846673507054  1.0000
  O   O1        1.0  0.5497423542789844  0.8371824300172911  0.7495844096269092  1.0000
  O   O2        1.0  0.37095778214467834  0.47270318607353284  0.5195079317579504  1.0000
  O   O3        1.0  0.7015051611076577  0.5255554217806208  0.8205384374947192  1.0000
  O   O4        1.0  0.0552120838558523  0.3531683591298216  0.43730567696379147  1.0000
  O   O5        1.0  0.9863971461314366  0.23921169471946932  0.9581025427490272  1.0000
  O   O6        1.0  0.3795155929892978  0.29685294940639  0.015547676564694024  1.0000
  O   O7        1.0  0.9408515391483008  0.7868359405050632  0.6951325878916953  1.0000
  O   O8        1.0  0.7106326419509905  0.717942251787196  0.3810669949799314  1.0000
  O   O9        1.0  0.27865908521206423  0.2826580233316412  0.7952769966522999  1.0000
  O   O10       1.0  0.4222289448932113  0.1379676839038507  0.45988730070199724  1.0000
  O   O11       1.0  0.8413173411328801  0.5820142062641341  0.17899818129157474  1.0000
  O   O12       1.0  0.9923925907048223  0.8995820245838517  0.2703206952917935  1.0000
data_image62
_chemical_formula_structural       K4N4O12
_chemical_formula_sum              "K4 N4 O12"
_cell_length_a       5.602235
_cell_length_b       6.405085
_cell_length_c       9.268196
_cell_angle_alpha    90.0
_cell_angle_beta     90.0
_cell_angle_gamma    90.0

_space_group_name_H-M_alt    "P 1"
_space_group_IT_number       1

loop_
  _space_group_symop_operation_xyz
  'x, y, z'

loop_
  _atom_site_type_symbol
  _atom_site_label
  _atom_site_symmetry_multiplicity
  _atom_site_fract_x
  _atom_site_fract_y
  _atom_site_fract_z
  _atom_site_occupancy
  K   K1        1.0  0.6569512283174566  0.23511324227254016  0.206910499278712  1.0000
  K   K2        1.0  0.7958316873663857  0.16012364380626873  0.675595140708763  1.0000
  K   K3        1.0  0.14876311583353855  0.7563730890379141  0.956744525751999  1.0000
  K   K4        1.0  0.24675118316243919  0.8050732434048162  0.49676939815232624  1.0000
  N   N1        1.0  0.8394311369931229  0.8225252447183976  0.27847307455642506  1.0000
  N   N2        1.0  0.8040892072756876  0.6893377031056832  0.7412017847528136  1.0000
  N   N3        1.0  0.1123034958561769  0.18951485811854354  0.9488346886102562  1.0000
  N   N4        1.0  0.2961948783337347  0.35366372033147  0.45017962509374976  1.0000
  O   O1        1.0  0.6353264168108169  0.7607790517524224  0.8032095778230184  1.0000
  O   O2        1.0  0.472955789482864  0.4872345315689686  0.42488583315356515  1.0000
  O   O3        1.0  0.9032299904078589  0.5195670058018625  0.7965837108114723  1.0000
  O   O4        1.0  0.11877635415784304  0.4244144607771055  0.4864356035436759  1.0000
  O   O5        1.0  0.9067563456030675  0.10735422460498875  0.9688093530018065  1.0000
  O   O6        1.0  0.2133797259831213  0.29747987442969726  0.050481828227569636  1.0000
  O   O7        1.0  0.9062310561520401  0.7570003204889175  0.6318049890636955  1.0000
  O   O8        1.0  0.6931775395246368  0.9209174254429755  0.3607323616609031  1.0000
  O   O9        1.0  0.2729907759619844  0.10080868025136504  0.8537379336444049  1.0000
  O   O10       1.0  0.35994864333166143  0.1574745166489621  0.44339055148589446  1.0000
  O   O11       1.0  0.8050373909729023  0.6263321923099285  0.22760133290832604  1.0000
  O   O12       1.0  0.05035556251524653  0.915412548249692  0.23317304807224953  1.0000
data_image63
_chemical_formula_structural       K4N4O12
_chemical_formula_sum              "K4 N4 O12"
_cell_length_a       5.602235
_cell_length_b       6.405085
_cell_length_c       9.268196
_cell_angle_alpha    90.0
_cell_angle_beta     90.0
_cell_angle_gamma    90.0

_space_group_name_H-M_alt    "P 1"
_space_group_IT_number       1

loop_
  _space_group_symop_operation_xyz
  'x, y, z'

loop_
  _atom_site_type_symbol
  _atom_site_label
  _atom_site_symmetry_multiplicity
  _atom_site_fract_x
  _atom_site_fract_y
  _atom_site_fract_z
  _atom_site_occupancy
  K   K1        1.0  0.6490935639303234  0.28527220680758114  0.15029394153481476  1.0000
  K   K2        1.0  0.8176395772433679  0.15463448670940452  0.7006057133807292  1.0000
  K   K3        1.0  0.1815400886961216  0.6437670365034553  0.029224887540130577  1.0000
  K   K4        1.0  0.3414713630303471  0.8231900420885903  0.48140499616603244  1.0000
  N   N1        1.0  0.854843373124898  0.8446440270489068  0.21342455519979478  1.0000
  N   N2        1.0  0.6668586284560853  0.6913925364553408  0.7176774536507637  1.0000
  N   N3        1.0  0.14715946858319776  0.2110626544750685  0.9704359478007409  1.0000
  N   N4        1.0  0.3505564605212437  0.35428877070052245  0.4801894191403385  1.0000
  O   O1        1.0  0.49442207590299403  0.7199903341576559  0.8035261101733493  1.0000
  O   O2        1.0  0.40357579655826625  0.46056675877441733  0.3730503479006057  1.0000
  O   O3        1.0  0.8572223205915923  0.562413686806622  0.7689586646765944  1.0000
  O   O4        1.0  0.2596061274871131  0.44209803349524857  0.5924170454268561  1.0000
  O   O5        1.0  0.9411323240083099  0.142639826283571  0.9427995305403314  1.0000
  O   O6        1.0  0.16623937897996235  0.191959992956138  0.11077926741864164  1.0000
  O   O7        1.0  0.6726524867643169  0.7127261805216822  0.5793933907835073  1.0000
  O   O8        1.0  0.7166833008383756  0.9946287769311893  0.28058293525853617  1.0000
  O   O9        1.0  0.3177319046030159  0.22587055623911462  0.8821816044700187  1.0000
  O   O10       1.0  0.35860794317178635  0.17043444054900914  0.4821349430902662  1.0000
  O   O11       1.0  0.7663682184428646  0.6548015010065797  0.1947096840919623  1.0000
  O   O12       1.0  0.06210267504563438  0.880640108892729  0.2391778085740057  1.0000
data_image64
_chemical_formula_structural       K4N4O12
_chemical_formula_sum              "K4 N4 O12"
_cell_length_a       5.602235
_cell_length_b       6.405085
_cell_length_c       9.268196
_cell_angle_alpha    90.0
_cell_angle_beta     90.0
_cell_angle_gamma    90.0

_space_group_name_H-M_alt    "P 1"
_space_group_IT_number       1

loop_
  _space_group_symop_operation_xyz
  'x, y, z'

loop_
  _atom_site_type_symbol
  _atom_site_label
  _atom_site_symmetry_multiplicity
  _atom_site_fract_x
  _atom_site_fract_y
  _atom_site_fract_z
  _atom_site_occupancy
  K   K1        1.0  0.6673378335887248  0.23584684586397073  0.14803800870823133  1.0000
  K   K2        1.0  0.9731017310448024  0.24328711559006938  0.6818100477458343  1.0000
  K   K3        1.0  0.16271699434422207  0.6448553633643183  0.9710071278833707  1.0000
  K   K4        1.0  0.26272522427729167  0.8384408189305368  0.40310832769390914  1.0000
  N   N1        1.0  0.8158932532826273  0.8310237120752457  0.25924854006322073  1.0000
  N   N2        1.0  0.6766355215775604  0.6426182247615237  0.7539932621114747  1.0000
  N   N3        1.0  0.1289627463146217  0.19006147960254233  0.9735820353707542  1.0000
  N   N4        1.0  0.3616784515043574  0.38943826344507665  0.5130432148065956  1.0000
  O   O1        1.0  0.5179324871748481  0.7654067591288238  0.7557603219696591  1.0000
  O   O2        1.0  0.29988782268169656  0.3801618297243652  0.39040926586166924  1.0000
  O   O3        1.0  0.7171692203146889  0.4875477921845943  0.8721295932915246  1.0000
  O   O4        1.0  0.236784293840008  0.5312770907787079  0.5895348139133293  1.0000
  O   O5        1.0  0.06721658535758766  0.020029178645762428  0.9400564681224449  1.0000
  O   O6        1.0  0.09211025413579134  0.2538850249325116  0.1028330572524867  1.0000
  O   O7        1.0  0.7272465110697641  0.5618073999069493  0.6237559361987497  1.0000
  O   O8        1.0  0.8246834361639732  0.9244805377283501  0.3964102174080525  1.0000
  O   O9        1.0  0.3047375605834226  0.2654969987297568  0.906357381401838  1.0000
  O   O10       1.0  0.482732145435814  0.25393064412059485  0.5688386190972374  1.0000
  O   O11       1.0  0.6130086331897932  0.7724110894032774  0.21341457296022495  1.0000
  O   O12       1.0  0.9770645242322621  0.8520571570812999  0.17196441966490647  1.0000
data_image65
_chemical_formula_structural       K4N4O12
_chemical_formula_sum              "K4 N4 O12"
_cell_length_a       5.602235
_cell_length_b       6.405085
_cell_length_c       9.268196
_cell_angle_alpha    90.0
_cell_angle_beta     90.0
_cell_angle_gamma    90.0

_space_group_name_H-M_alt    "P 1"
_space_group_IT_number       1

loop_
  _space_group_symop_operation_xyz
  'x, y, z'

loop_
  _atom_site_type_symbol
  _atom_site_label
  _atom_site_symmetry_multiplicity
  _atom_site_fract_x
  _atom_site_fract_y
  _atom_site_fract_z
  _atom_site_occupancy
  K   K1        1.0  0.5063931051862569  0.3553767947599503  0.14660476338149392  1.0000
  K   K2        1.0  0.9893503868605582  0.16981696249555844  0.6432824491666246  1.0000
  K   K3        1.0  0.21333031336950067  0.6246054192607576  0.9731797750558744  1.0000
  K   K4        1.0  0.3020629687335008  0.7757771773980647  0.39315890211358184  1.0000
  N   N1        1.0  0.7600844395764608  0.8892272429854986  0.2868555572949926  1.0000
  N   N2        1.0  0.7299899960448755  0.6994834974343918  0.7635008297839906  1.0000
  N   N3        1.0  0.15135275601112247  0.10348040982016937  0.993022925575355  1.0000
  N   N4        1.0  0.37293336143779654  0.3301384361826903  0.5153985516500226  1.0000
  O   O1        1.0  0.5399614695468804  0.8384241393007174  0.7595859922408658  1.0000
  O   O2        1.0  0.2831522065487184  0.33909164931872465  0.3672242822982316  1.0000
  O   O3        1.0  0.721851068871848  0.5339205355572054  0.8465089121852337  1.0000
  O   O4        1.0  0.30916970133978383  0.49647907080019904  0.5834377294587474  1.0000
  O   O5        1.0  0.02325196548246931  0.9509749863800099  0.9428005345756773  1.0000
  O   O6        1.0  0.057539725741391885  0.22039016876248277  0.09243017558335298  1.0000
  O   O7        1.0  0.8971442940600227  0.6995093580493046  0.6796254655952484  1.0000
  O   O8        1.0  0.7187800062585937  0.9739130483421545  0.416707808577498  1.0000
  O   O9        1.0  0.3311632054085056  0.18264403618480163  0.9347935614762748  1.0000
  O   O10       1.0  0.5195580102882396  0.20704679494220363  0.5551206980384605  1.0000
  O   O11       1.0  0.609652919390492  0.9174217383695583  0.17705934540853643  1.0000
  O   O12       1.0  0.9545703717642403  0.8261818000731376  0.24249036891460338  1.0000
data_image66
_chemical_formula_structural       K4N4O12
_chemical_formula_sum              "K4 N4 O12"
_cell_length_a       5.602235
_cell_length_b       6.405085
_cell_length_c       9.268196
_cell_angle_alpha    90.0
_cell_angle_beta     90.0
_cell_angle_gamma    90.0

_space_group_name_H-M_alt    "P 1"
_space_group_IT_number       1

loop_
  _space_group_symop_operation_xyz
  'x, y, z'

loop_
  _atom_site_type_symbol
  _atom_site_label
  _atom_site_symmetry_multiplicity
  _atom_site_fract_x
  _atom_site_fract_y
  _atom_site_fract_z
  _atom_site_occupancy
  K   K1        1.0  0.7730276998095547  0.36667350936649495  0.08461350589618741  1.0000
  K   K2        1.0  0.8019316999473508  0.12835206817090686  0.6986096148240482  1.0000
  K   K3        1.0  0.3156161868928936  0.6504515336570699  0.9456574668349537  1.0000
  K   K4        1.0  0.2591428406741143  0.8497321727449099  0.4157516826715978  1.0000
  N   N1        1.0  0.7568492576272647  0.8758239546654671  0.23158153911973783  1.0000
  N   N2        1.0  0.7844415261724655  0.6281740942886139  0.7437184181605353  1.0000
  N   N3        1.0  0.16232131596283267  0.1415917993585491  0.020087996203494107  1.0000
  N   N4        1.0  0.23918410615372543  0.364672466390908  0.5380730383302025  1.0000
  O   O1        1.0  0.5459775173367419  0.6916217719531469  0.7361366183841527  1.0000
  O   O2        1.0  0.029309681630067308  0.33825641238533083  0.47927977037749103  1.0000
  O   O3        1.0  0.8362244029003655  0.4966931264512213  0.8337476431731611  1.0000
  O   O4        1.0  0.25092349561801885  0.45748628607684233  0.6479237815142808  1.0000
  O   O5        1.0  0.9406226463972258  0.08613701412347032  0.9549425503903956  1.0000
  O   O6        1.0  0.1596022304048284  0.15106700161358563  0.15066157249875678  1.0000
  O   O7        1.0  0.9668241051414308  0.720140030126361  0.6773595619526617  1.0000
  O   O8        1.0  0.8921767973061325  0.9779132075898049  0.31349847735577324  1.0000
  O   O9        1.0  0.3464586871728418  0.1984531644002527  0.9572258495494597  1.0000
  O   O10       1.0  0.4179062494430319  0.26655169359068037  0.4828907798273411  1.0000
  O   O11       1.0  0.6027160713172429  0.9532998595916938  0.15903808912030984  1.0000
  O   O12       1.0  0.6989869554061212  0.6901316645820433  0.2543550015619679  1.0000
data_image67
_chemical_formula_structural       K4N4O12
_chemical_formula_sum              "K4 N4 O12"
_cell_length_a       5.602235
_cell_length_b       6.405085
_cell_length_c       9.268196
_cell_angle_alpha    90.0
_cell_angle_beta     90.0
_cell_angle_gamma    90.0

_space_group_name_H-M_alt    "P 1"
_space_group_IT_number       1

loop_
  _space_group_symop_operation_xyz
  'x, y, z'

loop_
  _atom_site_type_symbol
  _atom_site_label
  _atom_site_symmetry_multiplicity
  _atom_site_fract_x
  _atom_site_fract_y
  _atom_site_fract_z
  _atom_site_occupancy
  K   K1        1.0  0.7268129245835923  0.3101366554438891  0.12895206717535176  1.0000
  K   K2        1.0  0.7794509910462192  0.1476988187065357  0.707589276282719  1.0000
  K   K3        1.0  0.2578905385214941  0.7150741256246289  0.9356846317961576  1.0000
  K   K4        1.0  0.26809866931635873  0.8405831176802588  0.43981317448711016  1.0000
  N   N1        1.0  0.7397150119709575  0.7783939672333059  0.2794013942218607  1.0000
  N   N2        1.0  0.7835740150178709  0.6893426702791691  0.7459628625151388  1.0000
  N   N3        1.0  0.28949672726489484  0.14970686110725095  0.9582018124400371  1.0000
  N   N4        1.0  0.18137322923388544  0.35610682054923226  0.5134086710459255  1.0000
  O   O1        1.0  0.6103739906910373  0.8073759110315237  0.6586284346808055  1.0000
  O   O2        1.0  0.017394594946566144  0.49603355563581225  0.5264938047629464  1.0000
  O   O3        1.0  0.6858444651838245  0.6283357596891761  0.8618159014097035  1.0000
  O   O4        1.0  0.24355209801137878  0.20684841937178708  0.6035359314088751  1.0000
  O   O5        1.0  0.14565267515424982  0.25655994869777926  0.8747018119784037  1.0000
  O   O6        1.0  0.298259639740924  0.23664082791246097  0.0953472897533616  1.0000
  O   O7        1.0  0.015487448346673953  0.7046616745220002  0.7325092638113387  1.0000
  O   O8        1.0  0.8071538815196049  0.8898380728300648  0.38066603862287773  1.0000
  O   O9        1.0  0.49193588296902013  0.051742356395786185  0.9192231266426345  1.0000
  O   O10       1.0  0.2805695631846874  0.31393683432917935  0.39320329790993375  1.0000
  O   O11       1.0  0.6926460758897007  0.8074770856518542  0.14345651967270565  1.0000
  O   O12       1.0  0.6450070294681487  0.6144640100297443  0.32767249547664645  1.0000
data_image68
_chemical_formula_structural       K4N4O12
_chemical_formula_sum              "K4 N4 O12"
_cell_length_a       5.602235
_cell_length_b       6.405085
_cell_length_c       9.268196
_cell_angle_alpha    90.0
_cell_angle_beta     90.0
_cell_angle_gamma    90.0

_space_group_name_H-M_alt    "P 1"
_space_group_IT_number       1

loop_
  _space_group_symop_operation_xyz
  'x, y, z'

loop_
  _atom_site_type_symbol
  _atom_site_label
  _atom_site_symmetry_multiplicity
  _atom_site_fract_x
  _atom_site_fract_y
  _atom_site_fract_z
  _atom_site_occupancy
  K   K1        1.0  0.8420166267835556  0.2136684541241082  0.18951458027885626  1.0000
  K   K2        1.0  0.7050278792907051  0.1958445489158914  0.6788171005188515  1.0000
  K   K3        1.0  0.15365711127070703  0.6672126061602544  0.015134265995029612  1.0000
  K   K4        1.0  0.3211151115838629  0.8319152710813796  0.5131918816744782  1.0000
  N   N1        1.0  0.75371964457587  0.7251744644802056  0.3035887801966426  1.0000
  N   N2        1.0  0.7283049433877418  0.7330599882025763  0.768337399117229  1.0000
  N   N3        1.0  0.2837101712204726  0.20333558916258543  0.9008875512198142  1.0000
  N   N4        1.0  0.19251935057558955  0.3957719608704918  0.4081273863433447  1.0000
  O   O1        1.0  0.5602443005456722  0.7787905586973978  0.685860105025083  1.0000
  O   O2        1.0  0.04261962972776101  0.3746956642530338  0.5035610526116631  1.0000
  O   O3        1.0  0.7374971109200996  0.5802831899250808  0.8458132517793587  1.0000
  O   O4        1.0  0.4126407542969912  0.2755214411589479  0.417541945456197  1.0000
  O   O5        1.0  0.20078650391333475  0.3430955376771631  0.7963539301649586  1.0000
  O   O6        1.0  0.2307901378703359  0.26871829989958146  0.046564639174488054  1.0000
  O   O7        1.0  0.918419954487412  0.8619922969886591  0.7615492487188326  1.0000
  O   O8        1.0  0.7530722806307928  0.9027829911513586  0.3698989193204307  1.0000
  O   O9        1.0  0.415896048948317  0.03510987098008127  0.8742361788677611  1.0000
  O   O10       1.0  0.18595897284879404  0.48596442305170806  0.2872000304471425  1.0000
  O   O11       1.0  0.840659768863514  0.6887126133145883  0.18246370370917325  1.0000
  O   O12       1.0  0.6935774179314557  0.6005186267121276  0.394731556899461  1.0000
data_image69
_chemical_formula_structural       K4N4O12
_chemical_formula_sum              "K4 N4 O12"
_cell_length_a       5.602235
_cell_length_b       6.405085
_cell_length_c       9.268196
_cell_angle_alpha    90.0
_cell_angle_beta     90.0
_cell_angle_gamma    90.0

_space_group_name_H-M_alt    "P 1"
_space_group_IT_number       1

loop_
  _space_group_symop_operation_xyz
  'x, y, z'

loop_
  _atom_site_type_symbol
  _atom_site_label
  _atom_site_symmetry_multiplicity
  _atom_site_fract_x
  _atom_site_fract_y
  _atom_site_fract_z
  _atom_site_occupancy
  K   K1        1.0  0.813073764280795  0.2567022666401177  0.15747360235829297  1.0000
  K   K2        1.0  0.6744305284425717  0.2807742208536911  0.6084885486046533  1.0000
  K   K3        1.0  0.2373080562665395  0.6509678032489072  0.011674606732420571  1.0000
  K   K4        1.0  0.19911053724222275  0.899782946730445  0.5244464796752021  1.0000
  N   N1        1.0  0.7071886150629257  0.8167098099089491  0.2898131945516219  1.0000
  N   N2        1.0  0.7760317803208354  0.6580121005936481  0.8349912008555495  1.0000
  N   N3        1.0  0.3603763524718042  0.1826997180695569  0.9171910474471088  1.0000
  N   N4        1.0  0.16834764571278016  0.3016257533559565  0.40110960319435945  1.0000
  O   O1        1.0  0.7351292467288066  0.6879456853024023  0.7055593260081776  1.0000
  O   O2        1.0  0.03421859604835986  0.1946091436648987  0.4996124249563304  1.0000
  O   O3        1.0  0.8365014086683864  0.4948558047501717  0.887670043538605  1.0000
  O   O4        1.0  0.31528591762911673  0.19668416013173465  0.32545780711149125  1.0000
  O   O5        1.0  0.3189372879415217  0.2980997702528614  0.7982132827341734  1.0000
  O   O6        1.0  0.39680125072241923  0.2935477920661686  0.02786029799693579  1.0000
  O   O7        1.0  0.8765638648275649  0.8300146962182743  0.896567039363717  1.0000
  O   O8        1.0  0.6657876551600678  0.8814875815696052  0.41807877076461286  1.0000
  O   O9        1.0  0.3531653030878943  0.9815737910747387  0.9150764523822492  1.0000
  O   O10       1.0  0.13811102860847968  0.48741683978587225  0.3993541406954178  1.0000
  O   O11       1.0  0.8895970028212966  0.8536917772762701  0.20089592653701333  1.0000
  O   O12       1.0  0.621298326921615  0.6448410653940313  0.2673304530604415  1.0000
data_image70
_chemical_formula_structural       K4N4O12
_chemical_formula_sum              "K4 N4 O12"
_cell_length_a       5.602235
_cell_length_b       6.405085
_cell_length_c       9.268196
_cell_angle_alpha    90.0
_cell_angle_beta     90.0
_cell_angle_gamma    90.0

_space_group_name_H-M_alt    "P 1"
_space_group_IT_number       1

loop_
  _space_group_symop_operation_xyz
  'x, y, z'

loop_
  _atom_site_type_symbol
  _atom_site_label
  _atom_site_symmetry_multiplicity
  _atom_site_fract_x
  _atom_site_fract_y
  _atom_site_fract_z
  _atom_site_occupancy
  K   K1        1.0  0.8539277790677675  0.33860445355188623  0.13832510870110692  1.0000
  K   K2        1.0  0.6823662552750193  0.2733532179226409  0.5729054812868347  1.0000
  K   K3        1.0  0.24021628557675417  0.6678900100196555  0.12210685807239734  1.0000
  K   K4        1.0  0.16790348187454543  0.8083422689047534  0.4903014512623439  1.0000
  N   N1        1.0  0.6710298003477866  0.8374065564148332  0.3067652298179575  1.0000
  N   N2        1.0  0.7627115841488535  0.6743621742326494  0.8121991309733859  1.0000
  N   N3        1.0  0.32446962893256814  0.12174807842169787  0.8911115489289312  1.0000
  N   N4        1.0  0.2306397025225131  0.3716376259239328  0.4159926436395148  1.0000
  O   O1        1.0  0.818504353624173  0.6595807764460807  0.6833857354722209  1.0000
  O   O2        1.0  0.19804421871219247  0.37675633405677467  0.5550348768388763  1.0000
  O   O3        1.0  0.7396693656940119  0.5146442387136877  0.9091519492260328  1.0000
  O   O4        1.0  0.413841081216777  0.2370572294311733  0.3625207507225199  1.0000
  O   O5        1.0  0.3610363344135858  0.2912272677877499  0.833619642227511  1.0000
  O   O6        1.0  0.31963309817854646  0.07713541117739793  0.02581290830187033  1.0000
  O   O7        1.0  0.7634134898343624  0.8483498806054186  0.8767288384434455  1.0000
  O   O8        1.0  0.6320795853724608  0.7609935567301064  0.42497205518074255  1.0000
  O   O9        1.0  0.34166647670888833  0.9310857879822229  0.8069521098500465  1.0000
  O   O10       1.0  0.0698577405765839  0.44825332236258025  0.32831902674261687  1.0000
  O   O11       1.0  0.8534583850097496  0.9418021779561911  0.2985313606092322  1.0000
  O   O12       1.0  0.6424910773470851  0.7187756178149436  0.19886259512988713  1.0000
data_image71
_chemical_formula_structural       K4N4O12
_chemical_formula_sum              "K4 N4 O12"
_cell_length_a       5.602235
_cell_length_b       6.405085
_cell_length_c       9.268196
_cell_angle_alpha    90.0
_cell_angle_beta     90.0
_cell_angle_gamma    90.0

_space_group_name_H-M_alt    "P 1"
_space_group_IT_number       1

loop_
  _space_group_symop_operation_xyz
  'x, y, z'

loop_
  _atom_site_type_symbol
  _atom_site_label
  _atom_site_symmetry_multiplicity
  _atom_site_fract_x
  _atom_site_fract_y
  _atom_site_fract_z
  _atom_site_occupancy
  K   K1        1.0  0.8600746561175822  0.2585214773211625  0.07549908112194356  1.0000
  K   K2        1.0  0.769276294413859  0.17012702583611902  0.5801345944685807  1.0000
  K   K3        1.0  0.2726570321872125  0.6411293503505914  0.12903073455761307  1.0000
  K   K4        1.0  0.14769382968293387  0.8852327500120386  0.5180837240341148  1.0000
  N   N1        1.0  0.7301082423241185  0.8351687085401369  0.2820967690184161  1.0000
  N   N2        1.0  0.7288371305516288  0.704137293082206  0.8494609269678548  1.0000
  N   N3        1.0  0.23670060953575997  0.08464614324645188  0.8961275234095567  1.0000
  N   N4        1.0  0.2872447636056079  0.40966590120652424  0.4259207445622697  1.0000
  O   O1        1.0  0.7059278174814856  0.6394497437707808  0.7153363251299905  1.0000
  O   O2        1.0  0.43404525418377715  0.4680595248538376  0.5213042633710177  1.0000
  O   O3        1.0  0.6913375815251839  0.5670384080727238  0.9486303538526566  1.0000
  O   O4        1.0  0.36758187864787906  0.3290251804068541  0.30427031429461543  1.0000
  O   O5        1.0  0.20733226109225875  0.26986522569100824  0.9380233455292514  1.0000
  O   O6        1.0  0.26775829601911777  0.9483089992306721  0.9937791261850994  1.0000
  O   O7        1.0  0.7770053082930934  0.8852001357723619  0.8640052367569934  1.0000
  O   O8        1.0  0.581511105285891  0.7982717925615268  0.3826839056681905  1.0000
  O   O9        1.0  0.21368845921959664  0.004612877392207336  0.7696184653973361  1.0000
  O   O10       1.0  0.03146137110873437  0.4585922756044212  0.44261938498505593  1.0000
  O   O11       1.0  0.9204701824864479  0.9463797006861852  0.2992380904911208  1.0000
  O   O12       1.0  0.7006507727439273  0.7936654152217368  0.1503058290540763  1.0000
data_image72
_chemical_formula_structural       K4N4O12
_chemical_formula_sum              "K4 N4 O12"
_cell_length_a       5.602235
_cell_length_b       6.405085
_cell_length_c       9.268196
_cell_angle_alpha    90.0
_cell_angle_beta     90.0
_cell_angle_gamma    90.0

_space_group_name_H-M_alt    "P 1"
_space_group_IT_number       1

loop_
  _space_group_symop_operation_xyz
  'x, y, z'

loop_
  _atom_site_type_symbol
  _atom_site_label
  _atom_site_symmetry_multiplicity
  _atom_site_fract_x
  _atom_site_fract_y
  _atom_site_fract_z
  _atom_site_occupancy
  K   K1        1.0  0.759354937264476  0.17369030771253177  0.09627025019007532  1.0000
  K   K2        1.0  0.7468027306160612  0.22536241286038952  0.5765171092598921  1.0000
  K   K3        1.0  0.28423703135097605  0.5732504415913495  0.09492807689220338  1.0000
  K   K4        1.0  0.2489677549065368  0.8048024957501229  0.5926199668218529  1.0000
  N   N1        1.0  0.7200528532600144  0.8542778864841093  0.34763965262528723  1.0000
  N   N2        1.0  0.7703082483081303  0.7495412199089508  0.8555448361389847  1.0000
  N   N3        1.0  0.2521488664114146  0.15964873342103417  0.8431069461287973  1.0000
  N   N4        1.0  0.24015821649473224  0.3868805575231892  0.38212020540089187  1.0000
  O   O1        1.0  0.7978742220207192  0.7730084280976689  0.7173225459987159  1.0000
  O   O2        1.0  0.3836745603936724  0.5301434925727004  0.38642224408111686  1.0000
  O   O3        1.0  0.7350051231630792  0.5563233832934442  0.8932842806297075  1.0000
  O   O4        1.0  0.2579908530623607  0.2696888505708231  0.2771819776481312  1.0000
  O   O5        1.0  0.40566715876519094  0.23368166921951855  0.9173179095798504  1.0000
  O   O6        1.0  0.23440680971024047  0.951922930905973  0.8784368586174698  1.0000
  O   O7        1.0  0.7109209457710106  0.9187498203615481  0.9330174852314604  1.0000
  O   O8        1.0  0.5697663496946466  0.9763695820028757  0.30573009866565204  1.0000
  O   O9        1.0  0.15503600581760743  0.23682007056527704  0.7354998817273825  1.0000
  O   O10       1.0  0.027895216590281935  0.425450439051306  0.4612556375852702  1.0000
  O   O11       1.0  0.8943284461206025  0.9005382405533714  0.43339914328941587  1.0000
  O   O12       1.0  0.749899052642014  0.6690780800576234  0.2736079663193381  1.0000
data_image73
_chemical_formula_structural       K4N4O12
_chemical_formula_sum              "K4 N4 O12"
_cell_length_a       5.602235
_cell_length_b       6.405085
_cell_length_c       9.268196
_cell_angle_alpha    90.0
_cell_angle_beta     90.0
_cell_angle_gamma    90.0

_space_group_name_H-M_alt    "P 1"
_space_group_IT_number       1

loop_
  _space_group_symop_operation_xyz
  'x, y, z'

loop_
  _atom_site_type_symbol
  _atom_site_label
  _atom_site_symmetry_multiplicity
  _atom_site_fract_x
  _atom_site_fract_y
  _atom_site_fract_z
  _atom_site_occupancy
  K   K1        1.0  0.7474988186431917  0.2582976228178364  0.12036396006514834  1.0000
  K   K2        1.0  0.7096020901133467  0.15981034036528424  0.6399077511920088  1.0000
  K   K3        1.0  0.37643998755831287  0.6093402142139895  0.056337482991194995  1.0000
  K   K4        1.0  0.27733426210427853  0.7281989149423834  0.6220414480823884  1.0000
  N   N1        1.0  0.7083982029136091  0.8541012742170018  0.326290830214345  1.0000
  N   N2        1.0  0.7895499406724067  0.7458806916887543  0.86462670554484  1.0000
  N   N3        1.0  0.27432927507406407  0.1731081265019897  0.8237774515553683  1.0000
  N   N4        1.0  0.1407823798106771  0.3864910673231012  0.3350747014538561  1.0000
  O   O1        1.0  0.6829785963285269  0.792585978694377  0.7530301250388218  1.0000
  O   O2        1.0  0.2898035820468807  0.47944384528842204  0.40825111291038324  1.0000
  O   O3        1.0  0.81297364452041  0.5565770114580498  0.884402480238754  1.0000
  O   O4        1.0  0.20333868461393223  0.3075662156683023  0.20945653330470443  1.0000
  O   O5        1.0  0.34625756845443656  0.265335754936076  0.9343094002745609  1.0000
  O   O6        1.0  0.22624958255016128  0.9758020077226598  0.862180014817918  1.0000
  O   O7        1.0  0.823728547278774  0.877877133997846  0.9658357922460158  1.0000
  O   O8        1.0  0.5410473924054909  0.9917866155461468  0.32427887421447166  1.0000
  O   O9        1.0  0.29674331092861256  0.25681695512842473  0.6925828819383102  1.0000
  O   O10       1.0  0.9415082171862056  0.3784762408047269  0.40435383392036917  1.0000
  O   O11       1.0  0.8625163352839174  0.8445751385760994  0.43273115526258127  1.0000
  O   O12       1.0  0.7839379537241402  0.7570960544531478  0.21827959261271254  1.0000
data_image74
_chemical_formula_structural       K4N4O12
_chemical_formula_sum              "K4 N4 O12"
_cell_length_a       5.602235
_cell_length_b       6.405085
_cell_length_c       9.268196
_cell_angle_alpha    90.0
_cell_angle_beta     90.0
_cell_angle_gamma    90.0

_space_group_name_H-M_alt    "P 1"
_space_group_IT_number       1

loop_
  _space_group_symop_operation_xyz
  'x, y, z'

loop_
  _atom_site_type_symbol
  _atom_site_label
  _atom_site_symmetry_multiplicity
  _atom_site_fract_x
  _atom_site_fract_y
  _atom_site_fract_z
  _atom_site_occupancy
  K   K1        1.0  0.7172698161907464  0.20162743427447963  0.16153714628442523  1.0000
  K   K2        1.0  0.7143260485839926  0.1353592453445944  0.6661108205750663  1.0000
  K   K3        1.0  0.37327375666761425  0.794469633563054  0.0543940861726647  1.0000
  K   K4        1.0  0.23078415309664982  0.6362435386277658  0.6138726026109212  1.0000
  N   N1        1.0  0.7435565737532868  0.8443389784062192  0.3587407445543129  1.0000
  N   N2        1.0  0.8041123446987071  0.6766378244957815  0.8610318541492236  1.0000
  N   N3        1.0  0.23306896746477895  0.2139857617574408  0.789162253372952  1.0000
  N   N4        1.0  0.1801462768494282  0.3868915879324335  0.3162329027620186  1.0000
  O   O1        1.0  0.7092221540318597  0.7143477728233772  0.7417652600213291  1.0000
  O   O2        1.0  0.382100666033393  0.471325632913801  0.3399888856545382  1.0000
  O   O3        1.0  0.8595930821377838  0.5048387345804677  0.8887324702651649  1.0000
  O   O4        1.0  0.17889847682977478  0.19818404383969343  0.23634784699880543  1.0000
  O   O5        1.0  0.36261269546951486  0.2960654541446388  0.8800690208822671  1.0000
  O   O6        1.0  0.2801934252902083  0.031230169012613686  0.7810485152001594  1.0000
  O   O7        1.0  0.8575819758517744  0.8624276474334532  0.9472344693559444  1.0000
  O   O8        1.0  0.5077692220046585  0.9082308140338243  0.33738790784182615  1.0000
  O   O9        1.0  0.06579211969358736  0.3264378214914236  0.7329715469395569  1.0000
  O   O10       1.0  9.12198762010874e-05  0.46775578709101845  0.39897255457482006  1.0000
  O   O11       1.0  0.9098397953137515  0.9925653741178326  0.40266878438366344  1.0000
  O   O12       1.0  0.8375564036181607  0.7141482534281713  0.28407100562789234  1.0000
data_image75
_chemical_formula_structural       K4N4O12
_chemical_formula_sum              "K4 N4 O12"
_cell_length_a       5.602235
_cell_length_b       6.405085
_cell_length_c       9.268196
_cell_angle_alpha    90.0
_cell_angle_beta     90.0
_cell_angle_gamma    90.0

_space_group_name_H-M_alt    "P 1"
_space_group_IT_number       1

loop_
  _space_group_symop_operation_xyz
  'x, y, z'

loop_
  _atom_site_type_symbol
  _atom_site_label
  _atom_site_symmetry_multiplicity
  _atom_site_fract_x
  _atom_site_fract_y
  _atom_site_fract_z
  _atom_site_occupancy
  K   K1        1.0  0.7126060267623536  0.2816242352590829  0.19612596779524957  1.0000
  K   K2        1.0  0.704848680135622  0.16421366727431713  0.6540865564278432  1.0000
  K   K3        1.0  0.3599986826841536  0.863607098613249  0.05114552157342118  1.0000
  K   K4        1.0  0.17880158264328289  0.7140411951631768  0.6146287732577753  1.0000
  N   N1        1.0  0.745867002948311  0.793355392965547  0.3385599542725024  1.0000
  N   N2        1.0  0.7795256959229282  0.7122427682113602  0.8628014923372738  1.0000
  N   N3        1.0  0.2839265059041629  0.18412822389277317  0.8037507471705979  1.0000
  N   N4        1.0  0.20407175560829138  0.2830982491316513  0.30996020246739  1.0000
  O   O1        1.0  0.6982443119056994  0.6209907355478714  0.7444389399380344  1.0000
  O   O2        1.0  0.32357892863816473  0.4616245663396305  0.3027907746243154  1.0000
  O   O3        1.0  0.8952093742532342  0.6013450597744405  0.9560631981559077  1.0000
  O   O4        1.0  0.226968427616405  0.1431916472681786  0.2059531060744539  1.0000
  O   O5        1.0  0.32989383935773753  0.2701742722027038  0.9108012584364996  1.0000
  O   O6        1.0  0.31828393683514605  0.9848135217697196  0.8340692473134341  1.0000
  O   O7        1.0  0.7864840103188888  0.9379577550997321  0.8662892593788141  1.0000
  O   O8        1.0  0.5623171362995103  0.9211593934724559  0.3436524589147289  1.0000
  O   O9        1.0  0.20329856291142567  0.27124309725409157  0.6940092046298424  1.0000
  O   O10       1.0  0.0511686374113971  0.26363989351679346  0.40210195067581317  1.0000
  O   O11       1.0  0.8967697690331032  0.7744569214212278  0.4444786581044694  1.0000
  O   O12       1.0  0.8059635508174487  0.7391641816318771  0.2284162136225163  1.0000
data_image76
_chemical_formula_structural       K4N4O12
_chemical_formula_sum              "K4 N4 O12"
_cell_length_a       5.602235
_cell_length_b       6.405085
_cell_length_c       9.268196
_cell_angle_alpha    90.0
_cell_angle_beta     90.0
_cell_angle_gamma    90.0

_space_group_name_H-M_alt    "P 1"
_space_group_IT_number       1

loop_
  _space_group_symop_operation_xyz
  'x, y, z'

loop_
  _atom_site_type_symbol
  _atom_site_label
  _atom_site_symmetry_multiplicity
  _atom_site_fract_x
  _atom_site_fract_y
  _atom_site_fract_z
  _atom_site_occupancy
  K   K1        1.0  0.7657011261061094  0.3459197539373414  0.04124557223141104  1.0000
  K   K2        1.0  0.7985444158543328  0.2582524542391893  0.5918301794420766  1.0000
  K   K3        1.0  0.26208888020177024  0.8084479285888613  0.13336385392940311  1.0000
  K   K4        1.0  0.10390241816945686  0.6480483827811951  0.6321882551745324  1.0000
  N   N1        1.0  0.6872963913496591  0.7771897598362586  0.3932803770210815  1.0000
  N   N2        1.0  0.8428513019638917  0.7236042342837249  0.8947662502751075  1.0000
  N   N3        1.0  0.3265408413486994  0.20626564203312997  0.7734262131900611  1.0000
  N   N4        1.0  0.2153543124548687  0.2707609007590984  0.3345629615291995  1.0000
  O   O1        1.0  0.7481728829458548  0.5893743655436341  0.7949191096002945  1.0000
  O   O2        1.0  0.4382481009661303  0.33109994992534697  0.3469149974067713  1.0000
  O   O3        1.0  0.024481944574355256  0.6684367287950528  0.9650348548395729  1.0000
  O   O4        1.0  0.14491008448354648  0.10041861921806663  0.25723202731477024  1.0000
  O   O5        1.0  0.3579789016514335  0.3179551263003841  0.8818112213786555  1.0000
  O   O6        1.0  0.2867200543164616  0.030249104120515357  0.8304983443220042  1.0000
  O   O7        1.0  0.8085000133774713  0.9246407100527394  0.8729476894922173  1.0000
  O   O8        1.0  0.47817682158679414  0.8753450462559562  0.39699953875938093  1.0000
  O   O9        1.0  0.2687002639780695  0.2979143879007038  0.6561518367426563  1.0000
  O   O10       1.0  0.05049469450680033  0.3687455663618687  0.3853626111353673  1.0000
  O   O11       1.0  0.7154103540362027  0.6283382553133927  0.4915298175615674  1.0000
  O   O12       1.0  0.7861741375303323  0.756895539521897  0.2723741322446767  1.0000
data_image77
_chemical_formula_structural       K4N4O12
_chemical_formula_sum              "K4 N4 O12"
_cell_length_a       5.602235
_cell_length_b       6.405085
_cell_length_c       9.268196
_cell_angle_alpha    90.0
_cell_angle_beta     90.0
_cell_angle_gamma    90.0

_space_group_name_H-M_alt    "P 1"
_space_group_IT_number       1

loop_
  _space_group_symop_operation_xyz
  'x, y, z'

loop_
  _atom_site_type_symbol
  _atom_site_label
  _atom_site_symmetry_multiplicity
  _atom_site_fract_x
  _atom_site_fract_y
  _atom_site_fract_z
  _atom_site_occupancy
  K   K1        1.0  0.7454752127832815  0.28268531232786726  0.015683136395117567  1.0000
  K   K2        1.0  0.8614756054427399  0.17497026445382433  0.5409246188169912  1.0000
  K   K3        1.0  0.3485293239850335  0.8342816168768706  0.15805645492452955  1.0000
  K   K4        1.0  0.3056148962186412  0.7259702809492716  0.6673983561894286  1.0000
  N   N1        1.0  0.5380454371701305  0.7090393134010953  0.42839859334079833  1.0000
  N   N2        1.0  0.8206903218112767  0.8240572642887556  0.8437978039225149  1.0000
  N   N3        1.0  0.3316694859793592  0.20128629315473173  0.8329580576230273  1.0000
  N   N4        1.0  0.1783859395754257  0.26701587117791314  0.28053733256231567  1.0000
  O   O1        1.0  0.7438664112699251  0.6887807165958105  0.7517396337825709  1.0000
  O   O2        1.0  0.3893913917759013  0.22690284838868185  0.2223100027126016  1.0000
  O   O3        1.0  0.8018940860195274  0.7562583586706176  0.997063513388233  1.0000
  O   O4        1.0  0.014994566468611747  0.12260472166261009  0.2858174506156317  1.0000
  O   O5        1.0  0.2763496876248265  0.34191846478084464  0.9157734834455256  1.0000
  O   O6        1.0  0.32534300481604095  0.019896439684395983  0.8990740670974103  1.0000
  O   O7        1.0  0.7790334950266978  0.0036811106705170182  0.8268085965654186  1.0000
  O   O8        1.0  0.3148785700114928  0.7849760223299745  0.4100430100019889  1.0000
  O   O9        1.0  0.33590561475129505  0.24732414219868365  0.6973060339348789  1.0000
  O   O10       1.0  0.19261066246711378  0.42994327483372713  0.3519671476095451  1.0000
  O   O11       1.0  0.579801595847839  0.5329408340561304  0.47383772697531934  1.0000
  O   O12       1.0  0.7251464159717904  0.818381387196962  0.37002160769915504  1.0000
data_image78
_chemical_formula_structural       K4N4O12
_chemical_formula_sum              "K4 N4 O12"
_cell_length_a       5.602235
_cell_length_b       6.405085
_cell_length_c       9.268196
_cell_angle_alpha    90.0
_cell_angle_beta     90.0
_cell_angle_gamma    90.0

_space_group_name_H-M_alt    "P 1"
_space_group_IT_number       1

loop_
  _space_group_symop_operation_xyz
  'x, y, z'

loop_
  _atom_site_type_symbol
  _atom_site_label
  _atom_site_symmetry_multiplicity
  _atom_site_fract_x
  _atom_site_fract_y
  _atom_site_fract_z
  _atom_site_occupancy
  K   K1        1.0  0.7505009415862002  0.4456960608739482  0.021560098197288595  1.0000
  K   K2        1.0  0.9213180373764994  0.11955839185390679  0.5329245799997196  1.0000
  K   K3        1.0  0.44634206411654065  0.7662161394379254  0.1689777734338883  1.0000
  K   K4        1.0  0.15577430187908717  0.7478933178164482  0.762923532340995  1.0000
  N   N1        1.0  0.544936544353082  0.6671114762001792  0.4401628577900878  1.0000
  N   N2        1.0  0.7508945006624114  0.8301030038257434  0.9010016734897941  1.0000
  N   N3        1.0  0.29519604373578473  0.2249976290335029  0.8084601457021505  1.0000
  N   N4        1.0  0.19536652665167153  0.23366280320871352  0.20283460577192758  1.0000
  O   O1        1.0  0.7226585974963912  0.6348693453880523  0.8138047976596084  1.0000
  O   O2        1.0  0.4078441107809072  0.19184833872223314  0.21455131889032295  1.0000
  O   O3        1.0  0.868420545308787  0.8290865675331948  0.01595632430568572  1.0000
  O   O4        1.0  0.05897255331005735  0.10305059943529761  0.17206040030811454  1.0000
  O   O5        1.0  0.26874818840008435  0.3973864023105732  0.8746603086674452  1.0000
  O   O6        1.0  0.3547337035635023  0.0665908571351023  0.881766989423404  1.0000
  O   O7        1.0  0.8469124837154098  0.9623485411821606  0.8056485207708689  1.0000
  O   O8        1.0  0.3188406539102064  0.7672906656209703  0.46897923615561954  1.0000
  O   O9        1.0  0.28452628207045194  0.24474802064678453  0.6693841006817196  1.0000
  O   O10       1.0  0.11966365426450998  0.42717876240102365  0.20844314359212474  1.0000
  O   O11       1.0  0.5206088645977496  0.4707268570746611  0.40600729239772404  1.0000
  O   O12       1.0  0.7427140880901085  0.7682252278363586  0.4418389834921571  1.0000
data_image79
_chemical_formula_structural       K4N4O12
_chemical_formula_sum              "K4 N4 O12"
_cell_length_a       5.602235
_cell_length_b       6.405085
_cell_length_c       9.268196
_cell_angle_alpha    90.0
_cell_angle_beta     90.0
_cell_angle_gamma    90.0

_space_group_name_H-M_alt    "P 1"
_space_group_IT_number       1

loop_
  _space_group_symop_operation_xyz
  'x, y, z'

loop_
  _atom_site_type_symbol
  _atom_site_label
  _atom_site_symmetry_multiplicity
  _atom_site_fract_x
  _atom_site_fract_y
  _atom_site_fract_z
  _atom_site_occupancy
  K   K1        1.0  0.7423567933355519  0.33968197442788123  0.09269919939124611  1.0000
  K   K2        1.0  0.9597096896858658  0.186885485309425  0.5148307431804219  1.0000
  K   K3        1.0  0.3353232728405209  0.7603124340334506  0.17630383001036026  1.0000
  K   K4        1.0  0.08690106508899487  0.7304289460480461  0.6882287256030118  1.0000
  N   N1        1.0  0.6460941087196143  0.6229421516990764  0.46272493776865703  1.0000
  N   N2        1.0  0.67718034853275  0.8889027631195088  0.906136141394727  1.0000
  N   N3        1.0  0.31028444041374287  0.2986467365306558  0.7323787364551361  1.0000
  N   N4        1.0  0.2811660368124915  0.2061403765931406  0.21761908630008495  1.0000
  O   O1        1.0  0.49330709426681973  0.8107298232687244  0.9480734182180118  1.0000
  O   O2        1.0  0.433368362710568  0.10912807671479904  0.2829849134598246  1.0000
  O   O3        1.0  0.8556963803736932  0.7552268197887717  0.9197641431901862  1.0000
  O   O4        1.0  0.06719268376509158  0.11616151482775607  0.23661593224882257  1.0000
  O   O5        1.0  0.43878853898539755  0.3938329643392937  0.8264724791030121  1.0000
  O   O6        1.0  0.17786389055731375  0.10721243272662423  0.7589018678632503  1.0000
  O   O7        1.0  0.7094827588677874  0.04926620575167062  0.8285992824577924  1.0000
  O   O8        1.0  0.45281966652924194  0.7308354480542926  0.4728084453019159  1.0000
  O   O9        1.0  0.3435364807381014  0.3668760970759569  0.6127937036451905  1.0000
  O   O10       1.0  0.340074233402645  0.41644461196578025  0.19137748191449833  1.0000
  O   O11       1.0  0.6699692786280563  0.427193097962778  0.4042711496400592  1.0000
  O   O12       1.0  0.7858489719842748  0.6771995551767265  0.555500124681109  1.0000
data_image80
_chemical_formula_structural       K4N4O12
_chemical_formula_sum              "K4 N4 O12"
_cell_length_a       5.602235
_cell_length_b       6.405085
_cell_length_c       9.268196
_cell_angle_alpha    90.0
_cell_angle_beta     90.0
_cell_angle_gamma    90.0

_space_group_name_H-M_alt    "P 1"
_space_group_IT_number       1

loop_
  _space_group_symop_operation_xyz
  'x, y, z'

loop_
  _atom_site_type_symbol
  _atom_site_label
  _atom_site_symmetry_multiplicity
  _atom_site_fract_x
  _atom_site_fract_y
  _atom_site_fract_z
  _atom_site_occupancy
  K   K1        1.0  0.8045277839998696  0.31715696725687414  0.026899785420253605  1.0000
  K   K2        1.0  0.7467643779461174  0.1899802931297875  0.5791409000431681  1.0000
  K   K3        1.0  0.05728347058967366  0.628540755640363  0.20625139464467565  1.0000
  K   K4        1.0  0.31254912063751067  0.8867814231179281  0.7391708784001493  1.0000
  N   N1        1.0  0.6388077491919604  0.6459103641186807  0.4504578763544233  1.0000
  N   N2        1.0  0.7517054781145711  0.8766279245544941  0.8957344226323971  1.0000
  N   N3        1.0  0.3794457137398939  0.31670114568520735  0.7161797842992816  1.0000
  N   N4        1.0  0.2557764743952766  0.17515032851866144  0.23813952635270227  1.0000
  O   O1        1.0  0.533962547628344  0.8547149280889135  0.950164155665256  1.0000
  O   O2        1.0  0.3986919242457545  0.04537373844325746  0.2980940561639451  1.0000
  O   O3        1.0  0.9051855355024376  0.76430519270493  0.9614778447765772  1.0000
  O   O4        1.0  0.08846132374270144  0.059016660367984516  0.15750681001409317  1.0000
  O   O5        1.0  0.5525147871164782  0.44243340391270886  0.7326457406533435  1.0000
  O   O6        1.0  0.16355480771198125  0.3109493039101463  0.7919443320466255  1.0000
  O   O7        1.0  0.7886047245976204  0.06507386158338146  0.8462037403080492  1.0000
  O   O8        1.0  0.43223808991204005  0.6136937993755631  0.4549274711326775  1.0000
  O   O9        1.0  0.35646709046897457  0.1826399845528965  0.6098112826936961  1.0000
  O   O10       1.0  0.43529780165160825  0.32117464639307525  0.1696233740988713  1.0000
  O   O11       1.0  0.7707277576368156  0.5139469815685163  0.358984959855847  1.0000
  O   O12       1.0  0.737774546995569  0.7789124984708389  0.5288114113260138  1.0000
data_image81
_chemical_formula_structural       K4N4O12
_chemical_formula_sum              "K4 N4 O12"
_cell_length_a       5.602235
_cell_length_b       6.405085
_cell_length_c       9.268196
_cell_angle_alpha    90.0
_cell_angle_beta     90.0
_cell_angle_gamma    90.0

_space_group_name_H-M_alt    "P 1"
_space_group_IT_number       1

loop_
  _space_group_symop_operation_xyz
  'x, y, z'

loop_
  _atom_site_type_symbol
  _atom_site_label
  _atom_site_symmetry_multiplicity
  _atom_site_fract_x
  _atom_site_fract_y
  _atom_site_fract_z
  _atom_site_occupancy
  K   K1        1.0  0.7611967613795391  0.37543545113764665  0.9738158579582444  1.0000
  K   K2        1.0  0.8836992408988719  0.11255228894255209  0.5197489181468362  1.0000
  K   K3        1.0  0.06614856999405379  0.5611629509228548  0.3122123059948613  1.0000
  K   K4        1.0  0.3060063616319036  0.8132928116433129  0.7324331955659217  1.0000
  N   N1        1.0  0.5905248128715519  0.6609043886388098  0.48701196201457253  1.0000
  N   N2        1.0  0.835785209706579  0.8605189050452994  0.9317150448494064  1.0000
  N   N3        1.0  0.30677734135997137  0.38514654873681536  0.6904372281180037  1.0000
  N   N4        1.0  0.23197369753255637  0.15660234461589986  0.20228122667413706  1.0000
  O   O1        1.0  0.7505282887524627  0.9010978066089614  0.055197700242355596  1.0000
  O   O2        1.0  0.392965534523525  0.031651725836318916  0.2476976179990944  1.0000
  O   O3        1.0  0.031657038145328144  0.7441018227375624  0.9328573861176404  1.0000
  O   O4        1.0  0.9908135388382858  0.1597416882310556  0.19751558440168676  1.0000
  O   O5        1.0  0.49635888774312975  0.4440406180217412  0.770561166709013  1.0000
  O   O6        1.0  0.08447124853937735  0.4403791687042443  0.7263205938440432  1.0000
  O   O7        1.0  0.7739742023922318  0.9924381034964377  0.8274239985910632  1.0000
  O   O8        1.0  0.38721981584281573  0.701909585511013  0.45943494995378015  1.0000
  O   O9        1.0  0.32917526387428625  0.30773321273831844  0.5643928141491711  1.0000
  O   O10       1.0  0.34236177976397864  0.292768676406307  0.11281844936133777  1.0000
  O   O11       1.0  0.7065509767107446  0.4976953291441254  0.41003565238266343  1.0000
  O   O12       1.0  0.6934222650421308  0.7862187723899235  0.5778120790957021  1.0000
data_image82
_chemical_formula_structural       K4N4O12
_chemical_formula_sum              "K4 N4 O12"
_cell_length_a       5.602235
_cell_length_b       6.405085
_cell_length_c       9.268196
_cell_angle_alpha    90.0
_cell_angle_beta     90.0
_cell_angle_gamma    90.0

_space_group_name_H-M_alt    "P 1"
_space_group_IT_number       1

loop_
  _space_group_symop_operation_xyz
  'x, y, z'

loop_
  _atom_site_type_symbol
  _atom_site_label
  _atom_site_symmetry_multiplicity
  _atom_site_fract_x
  _atom_site_fract_y
  _atom_site_fract_z
  _atom_site_occupancy
  K   K1        1.0  0.826402131006849  0.3922221425282636  0.013559488576854583  1.0000
  K   K2        1.0  0.8237871059919649  0.12444822032313324  0.48555495931504716  1.0000
  K   K3        1.0  0.15723441876343025  0.553240729225279  0.2930175546959692  1.0000
  K   K4        1.0  0.2759051588553684  0.8865662934274965  0.7470547686657985  1.0000
  N   N1        1.0  0.5992137323344779  0.6468951944313774  0.4751023468188818  1.0000
  N   N2        1.0  0.7937362803619641  0.8738438916167096  0.9530317049587297  1.0000
  N   N3        1.0  0.30727144674471796  0.3522543822670109  0.6887632598770276  1.0000
  N   N4        1.0  0.23835854361120812  0.13925854319218825  0.15543008726298527  1.0000
  O   O1        1.0  0.6029077363055741  0.8458969861904223  0.008812603458343338  1.0000
  O   O2        1.0  0.41247236952340405  0.11299245589566366  0.23400166962901797  1.0000
  O   O3        1.0  0.9915468178607844  0.7824433459781304  0.01085181396757351  1.0000
  O   O4        1.0  0.0007892365439994276  0.14207634093290722  0.20540968207583676  1.0000
  O   O5        1.0  0.38897379532999116  0.4919612458303433  0.7659457672809441  1.0000
  O   O6        1.0  0.0854839309399244  0.30281044673514057  0.6688442629758112  1.0000
  O   O7        1.0  0.8834034912124387  0.04122328162172684  0.8860950443326668  1.0000
  O   O8        1.0  0.39926854282887414  0.6355094528067483  0.5357604752161425  1.0000
  O   O9        1.0  0.44321705268653455  0.20870984391877037  0.6801784698679866  1.0000
  O   O10       1.0  0.24414551248547522  0.2265694784861644  0.03427454624426799  1.0000
  O   O11       1.0  0.6068838549995277  0.6557954701191172  0.333636727531373  1.0000
  O   O12       1.0  0.7863305405207626  0.6677402329867268  0.5518610051326799  1.0000
data_image83
_chemical_formula_structural       K4N4O12
_chemical_formula_sum              "K4 N4 O12"
_cell_length_a       5.602235
_cell_length_b       6.405085
_cell_length_c       9.268196
_cell_angle_alpha    90.0
_cell_angle_beta     90.0
_cell_angle_gamma    90.0

_space_group_name_H-M_alt    "P 1"
_space_group_IT_number       1

loop_
  _space_group_symop_operation_xyz
  'x, y, z'

loop_
  _atom_site_type_symbol
  _atom_site_label
  _atom_site_symmetry_multiplicity
  _atom_site_fract_x
  _atom_site_fract_y
  _atom_site_fract_z
  _atom_site_occupancy
  K   K1        1.0  0.8091994523144449  0.3766736158476228  0.8867419588896076  1.0000
  K   K2        1.0  0.6945858877907809  0.12847922549680954  0.4648797348271144  1.0000
  K   K3        1.0  0.21680052947162384  0.6885317986984979  0.22730489136494292  1.0000
  K   K4        1.0  0.17036478510568387  0.884935992979801  0.8155633566207702  1.0000
  N   N1        1.0  0.8035763995165237  0.6462135889181879  0.44529531097123437  1.0000
  N   N2        1.0  0.7557912963379383  0.8347529536364815  0.9642120371014561  1.0000
  N   N3        1.0  0.3246701100624092  0.30585895257572154  0.7421033486282246  1.0000
  N   N4        1.0  0.18801531997400955  0.1461475695661183  0.22140850585015404  1.0000
  O   O1        1.0  0.5604469537764498  0.7409668242633384  0.9770922125625523  1.0000
  O   O2        1.0  0.31857371563660064  0.05465498883052818  0.30951121038486745  1.0000
  O   O3        1.0  0.9462510070231472  0.7839330800626546  0.038058231168323076  1.0000
  O   O4        1.0  0.9640063075745529  0.17960674882520453  0.2126739932239252  1.0000
  O   O5        1.0  0.31580109219014585  0.45385528901740174  0.8116327056426006  1.0000
  O   O6        1.0  0.13704593698026363  0.25271857417242255  0.6766926201526735  1.0000
  O   O7        1.0  0.7726252250624109  0.021190530578094835  0.9351134887074136  1.0000
  O   O8        1.0  0.608733685080364  0.5595071985065176  0.4937532184503185  1.0000
  O   O9        1.0  0.47820501162862006  0.17822042362774884  0.751145930136415  1.0000
  O   O10       1.0  0.3130759728045518  0.26093850323444345  0.1359378301738883  1.0000
  O   O11       1.0  0.7997089288997132  0.7314519238370882  0.318558297502982  1.0000
  O   O12       1.0  0.9834339137761033  0.6709297556023582  0.5226904946531156  1.0000
data_image84
_chemical_formula_structural       K4N4O12
_chemical_formula_sum              "K4 N4 O12"
_cell_length_a       5.602235
_cell_length_b       6.405085
_cell_length_c       9.268196
_cell_angle_alpha    90.0
_cell_angle_beta     90.0
_cell_angle_gamma    90.0

_space_group_name_H-M_alt    "P 1"
_space_group_IT_number       1

loop_
  _space_group_symop_operation_xyz
  'x, y, z'

loop_
  _atom_site_type_symbol
  _atom_site_label
  _atom_site_symmetry_multiplicity
  _atom_site_fract_x
  _atom_site_fract_y
  _atom_site_fract_z
  _atom_site_occupancy
  K   K1        1.0  0.7285806925850979  0.5401099876191545  0.7992668014921208  1.0000
  K   K2        1.0  0.6282427957880657  0.10934873540224103  0.41240579670713  1.0000
  K   K3        1.0  0.3924992301890359  0.7214693744765459  0.2924438756241976  1.0000
  K   K4        1.0  0.3020492598905479  0.7709009733428047  0.781708326920745  1.0000
  N   N1        1.0  0.883832145272646  0.5893975825768255  0.5040627660195127  1.0000
  N   N2        1.0  0.7513112953857751  0.839053215770248  0.01572893424534061  1.0000
  N   N3        1.0  0.2711070090623894  0.22504485312173417  0.7276916412749845  1.0000
  N   N4        1.0  0.09901957198751532  0.24627046947541745  0.24126629457832435  1.0000
  O   O1        1.0  0.5801617085998265  0.6918018104876962  0.022711970425815853  1.0000
  O   O2        1.0  0.17194622468299392  0.11516383884506749  0.3466466158273274  1.0000
  O   O3        1.0  0.9501374893019044  0.7960632912223743  0.0017960490136177398  1.0000
  O   O4        1.0  0.8884603813677744  0.2721985783721723  0.20460312996269023  1.0000
  O   O5        1.0  0.2760983353706052  0.3269991234578276  0.830912548621556  1.0000
  O   O6        1.0  0.04653125458765548  0.19305148126130411  0.694206420806294  1.0000
  O   O7        1.0  0.6397308131925579  0.010099159959539028  0.981179196399817  1.0000
  O   O8        1.0  0.7334776717616007  0.43916813515013764  0.5264380204059187  1.0000
  O   O9        1.0  0.40160844405731233  0.23190812925177226  0.6221386882542069  1.0000
  O   O10       1.0  0.25062325153620413  0.3598528800565476  0.17580050294440833  1.0000
  O   O11       1.0  0.8626214383833847  0.6667473724378434  0.3608147255105658  1.0000
  O   O12       1.0  0.06479159486218156  0.6569634170267802  0.581377785206129  1.0000
data_image85
_chemical_formula_structural       K4N4O12
_chemical_formula_sum              "K4 N4 O12"
_cell_length_a       5.602235
_cell_length_b       6.405085
_cell_length_c       9.268196
_cell_angle_alpha    90.0
_cell_angle_beta     90.0
_cell_angle_gamma    90.0

_space_group_name_H-M_alt    "P 1"
_space_group_IT_number       1

loop_
  _space_group_symop_operation_xyz
  'x, y, z'

loop_
  _atom_site_type_symbol
  _atom_site_label
  _atom_site_symmetry_multiplicity
  _atom_site_fract_x
  _atom_site_fract_y
  _atom_site_fract_z
  _atom_site_occupancy
  K   K1        1.0  0.8524002409222344  0.3930057074747138  0.8054980182612154  1.0000
  K   K2        1.0  0.6797772139784692  0.17904245807023775  0.27713227264258256  1.0000
  K   K3        1.0  0.24969417616034548  0.7718616911718423  0.3231847417898026  1.0000
  K   K4        1.0  0.2929320274889358  0.7231261699390313  0.8493683263081659  1.0000
  N   N1        1.0  0.8196877384337816  0.6502826358356395  0.47674591558321355  1.0000
  N   N2        1.0  0.7382320180192099  0.8234529326640702  0.05164542150902096  1.0000
  N   N3        1.0  0.25242049487773344  0.23836319222056435  0.747752360270946  1.0000
  N   N4        1.0  0.15415003272147  0.26331170916313407  0.22439043285939614  1.0000
  O   O1        1.0  0.7286152420283348  0.6444480118857746  0.0859667956970096  1.0000
  O   O2        1.0  0.10229636853776225  0.09594314860123376  0.29353139754281465  1.0000
  O   O3        1.0  0.8682652484530509  0.9137172085959604  0.9505763391882565  1.0000
  O   O4        1.0  0.0001273939249866185  0.35849473563586803  0.14319535585307233  1.0000
  O   O5        1.0  0.21105090094944043  0.343056802921927  0.8601367756941115  1.0000
  O   O6        1.0  0.06845800282200949  0.1145766344917873  0.7101761197365865  1.0000
  O   O7        1.0  0.5360661679492087  0.9133104900629511  0.06981309704146099  1.0000
  O   O8        1.0  0.7007285959712  0.47838926044400015  0.46239117268619623  1.0000
  O   O9        1.0  0.46650664299887823  0.23981133634816226  0.6849568292666643  1.0000
  O   O10       1.0  0.36175302889840677  0.3393678176372742  0.21032204237681354  1.0000
  O   O11       1.0  0.7983421549292471  0.7739569017967524  0.3765703738468667  1.0000
  O   O12       1.0  0.0025020595073044216  0.6592113377863683  0.566347980840117  1.0000
data_image86
_chemical_formula_structural       K4N4O12
_chemical_formula_sum              "K4 N4 O12"
_cell_length_a       5.602235
_cell_length_b       6.405085
_cell_length_c       9.268196
_cell_angle_alpha    90.0
_cell_angle_beta     90.0
_cell_angle_gamma    90.0

_space_group_name_H-M_alt    "P 1"
_space_group_IT_number       1

loop_
  _space_group_symop_operation_xyz
  'x, y, z'

loop_
  _atom_site_type_symbol
  _atom_site_label
  _atom_site_symmetry_multiplicity
  _atom_site_fract_x
  _atom_site_fract_y
  _atom_site_fract_z
  _atom_site_occupancy
  K   K1        1.0  0.846698198735443  0.3349696850449709  0.8188565013361342  1.0000
  K   K2        1.0  0.6093925532841027  0.2929923865073586  0.2692908790674316  1.0000
  K   K3        1.0  0.3222251153573663  0.7575909202056264  0.3489539886843776  1.0000
  K   K4        1.0  0.18407596377331595  0.7414843658265119  0.9062527915911871  1.0000
  N   N1        1.0  0.7562108172539236  0.6914400731750634  0.5667623602889381  1.0000
  N   N2        1.0  0.7094730235300322  0.818041118803602  0.009183283340429282  1.0000
  N   N3        1.0  0.37696238791846853  0.10553495219986433  0.696700530315468  1.0000
  N   N4        1.0  0.16143158581899453  0.3331260678715007  0.15875443990466873  1.0000
  O   O1        1.0  0.7145447808833059  0.6251778394345746  0.0057572779344650105  1.0000
  O   O2        1.0  0.21275273433514008  0.1512824777425173  0.21050077361990224  1.0000
  O   O3        1.0  0.8402348627789659  0.9586903714487041  0.9725575114267779  1.0000
  O   O4        1.0  0.9541099329571904  0.3454603573271037  0.08537973870388775  1.0000
  O   O5        1.0  0.3847471728753734  0.24538325226936186  0.7973815629786861  1.0000
  O   O6        1.0  0.18426616968708276  0.978999728241638  0.6754477635822972  1.0000
  O   O7        1.0  0.5325640277932089  0.862790454502482  0.09198993435218794  1.0000
  O   O8        1.0  0.621145765581725  0.5809098986023955  0.5048220783631167  1.0000
  O   O9        1.0  0.5921848433360047  0.056390751044633466  0.6314140395585139  1.0000
  O   O10       1.0  0.3444307432712115  0.47978651006295836  0.10927434671671833  1.0000
  O   O11       1.0  0.891928080670628  0.784711191194026  0.47288516805721187  1.0000
  O   O12       1.0  0.8135701356988687  0.6820871592550788  0.7022655382792693  1.0000
data_image87
_chemical_formula_structural       K4N4O12
_chemical_formula_sum              "K4 N4 O12"
_cell_length_a       5.602235
_cell_length_b       6.405085
_cell_length_c       9.268196
_cell_angle_alpha    90.0
_cell_angle_beta     90.0
_cell_angle_gamma    90.0

_space_group_name_H-M_alt    "P 1"
_space_group_IT_number       1

loop_
  _space_group_symop_operation_xyz
  'x, y, z'

loop_
  _atom_site_type_symbol
  _atom_site_label
  _atom_site_symmetry_multiplicity
  _atom_site_fract_x
  _atom_site_fract_y
  _atom_site_fract_z
  _atom_site_occupancy
  K   K1        1.0  0.8590119619771616  0.31976339924263536  0.7832962205903138  1.0000
  K   K2        1.0  0.6660692417799374  0.25353525047680475  0.3537896012185276  1.0000
  K   K3        1.0  0.32229194221276314  0.8215510922935482  0.3240693401470494  1.0000
  K   K4        1.0  0.19489943587824876  0.810343041755111  0.9377202972725145  1.0000
  N   N1        1.0  0.7979045814049803  0.640922612862561  0.5630259334743137  1.0000
  N   N2        1.0  0.7220747991273435  0.8864242122747686  0.0008568561675166286  1.0000
  N   N3        1.0  0.3443923306428702  0.03261282461345453  0.6219036233356451  1.0000
  N   N4        1.0  0.11868118684146678  0.29784896272007516  0.18644210292542118  1.0000
  O   O1        1.0  0.6729782548225502  0.7504956216105869  0.9085265981346943  1.0000
  O   O2        1.0  0.08856508404325747  0.2587007646104922  0.3204423364822007  1.0000
  O   O3        1.0  0.847265888884652  0.041872138168177475  0.005368906288570896  1.0000
  O   O4        1.0  0.972672442794942  0.40011128540225993  0.11604126471231126  1.0000
  O   O5        1.0  0.2934610862556267  0.1457159521226597  0.7299288775759132  1.0000
  O   O6        1.0  0.205007863731298  0.8780907785103695  0.5785637594375931  1.0000
  O   O7        1.0  0.5823162470552159  0.8603592903703443  0.11748070297308422  1.0000
  O   O8        1.0  0.6757949365254384  0.4910772937717783  0.5782375541329847  1.0000
  O   O9        1.0  0.5712814816404287  0.05351881778089903  0.5556761185993183  1.0000
  O   O10       1.0  0.33144532011699823  0.3545235566135546  0.16429970074712155  1.0000
  O   O11       1.0  0.8096283873420669  0.6890585036474023  0.4291886840068121  1.0000
  O   O12       1.0  0.8597833179051647  0.718576801792211  0.6744721310676852  1.0000
data_image88
_chemical_formula_structural       K4N4O12
_chemical_formula_sum              "K4 N4 O12"
_cell_length_a       5.602235
_cell_length_b       6.405085
_cell_length_c       9.268196
_cell_angle_alpha    90.0
_cell_angle_beta     90.0
_cell_angle_gamma    90.0

_space_group_name_H-M_alt    "P 1"
_space_group_IT_number       1

loop_
  _space_group_symop_operation_xyz
  'x, y, z'

loop_
  _atom_site_type_symbol
  _atom_site_label
  _atom_site_symmetry_multiplicity
  _atom_site_fract_x
  _atom_site_fract_y
  _atom_site_fract_z
  _atom_site_occupancy
  K   K1        1.0  0.7624789575735718  0.40658049773396865  0.8248611662978399  1.0000
  K   K2        1.0  0.6746675138617225  0.13712492813007005  0.3236708285765412  1.0000
  K   K3        1.0  0.2518814405703277  0.8182643811398986  0.3718456350924446  1.0000
  K   K4        1.0  0.20693883865206095  0.7439083693399694  0.9349792264514241  1.0000
  N   N1        1.0  0.6989410672921712  0.6041656712201425  0.4694219843692768  1.0000
  N   N2        1.0  0.7145486211457466  0.9200817389310861  0.016560489670494505  1.0000
  N   N3        1.0  0.4713226568093187  0.013682187434555255  0.6902527873019495  1.0000
  N   N4        1.0  0.1813630360373213  0.4048326173103756  0.1760916770044538  1.0000
  O   O1        1.0  0.7563302879501468  0.8254058292784989  0.8893395934699565  1.0000
  O   O2        1.0  0.20052010275559118  0.2563959967138217  0.2600093680195049  1.0000
  O   O3        1.0  0.7988832351536372  0.0986176935222478  0.037389859379486134  1.0000
  O   O4        1.0  0.06039153464335589  0.568882641072685  0.20057459125432764  1.0000
  O   O5        1.0  0.3898339853389953  0.08175904250350156  0.7987197999119622  1.0000
  O   O6        1.0  0.33336311711955086  0.8766639886378836  0.6159263193770173  1.0000
  O   O7        1.0  0.576589319628247  0.8400640039172909  0.1058988690654028  1.0000
  O   O8        1.0  0.46733567494660777  0.5419024303308702  0.5097979018811862  1.0000
  O   O9        1.0  0.7140880247493587  0.017651744227417294  0.6550672371466605  1.0000
  O   O10       1.0  0.3418270945845814  0.4405263907249958  0.07529502580551103  1.0000
  O   O11       1.0  0.6800882496012005  0.7528357984753054  0.3811864149630016  1.0000
  O   O12       1.0  0.872541498299571  0.5135076336124882  0.5309159116588429  1.0000
data_image89
_chemical_formula_structural       K4N4O12
_chemical_formula_sum              "K4 N4 O12"
_cell_length_a       5.602235
_cell_length_b       6.405085
_cell_length_c       9.268196
_cell_angle_alpha    90.0
_cell_angle_beta     90.0
_cell_angle_gamma    90.0

_space_group_name_H-M_alt    "P 1"
_space_group_IT_number       1

loop_
  _space_group_symop_operation_xyz
  'x, y, z'

loop_
  _atom_site_type_symbol
  _atom_site_label
  _atom_site_symmetry_multiplicity
  _atom_site_fract_x
  _atom_site_fract_y
  _atom_site_fract_z
  _atom_site_occupancy
  K   K1        1.0  0.7430008633259256  0.4408965788940634  0.8018252669696863  1.0000
  K   K2        1.0  0.6725531852839832  0.2239562635805043  0.3172047410884021  1.0000
  K   K3        1.0  0.05576022409711224  0.8178843630138646  0.47393662457703295  1.0000
  K   K4        1.0  0.19699104089094666  0.7888791078642199  0.8725994742100593  1.0000
  N   N1        1.0  0.6703643640591795  0.5415092770824435  0.497687984799067  1.0000
  N   N2        1.0  0.6864689279783387  0.9191840212917398  0.033630798336403034  1.0000
  N   N3        1.0  0.5739921932649504  0.994246838411407  0.6932159946683228  1.0000
  N   N4        1.0  0.24549648503435795  0.38893482663990553  0.11812277850219648  1.0000
  O   O1        1.0  0.7498026968312276  0.7696348421978065  0.9389479922661383  1.0000
  O   O2        1.0  0.25105192907654406  0.3091944866203721  0.23802522898580397  1.0000
  O   O3        1.0  0.8150177543973016  0.05738239893345631  0.060167651475846684  1.0000
  O   O4        1.0  0.14902549538361853  0.5994983258976766  0.12145801108464252  1.0000
  O   O5        1.0  0.5201373399541496  0.1128588295086668  0.8188892285429438  1.0000
  O   O6        1.0  0.4701738373636352  0.8238584403254466  0.6927080112422065  1.0000
  O   O7        1.0  0.4956362439831018  0.889035049016597  0.09544101036272501  1.0000
  O   O8        1.0  0.4800097118172067  0.4231669710000681  0.4841747416270781  1.0000
  O   O9        1.0  0.7993306639577725  0.011052376019131845  0.6438303401093484  1.0000
  O   O10       1.0  0.37474610593001234  0.36425497636122617  0.009672470128663752  1.0000
  O   O11       1.0  0.6648825001384702  0.7147735092505055  0.43215018295857915  1.0000
  O   O12       1.0  0.878176835479247  0.4252033147070219  0.5071947667919486  1.0000
data_image90
_chemical_formula_structural       K4N4O12
_chemical_formula_sum              "K4 N4 O12"
_cell_length_a       5.602235
_cell_length_b       6.405085
_cell_length_c       9.268196
_cell_angle_alpha    90.0
_cell_angle_beta     90.0
_cell_angle_gamma    90.0

_space_group_name_H-M_alt    "P 1"
_space_group_IT_number       1

loop_
  _space_group_symop_operation_xyz
  'x, y, z'

loop_
  _atom_site_type_symbol
  _atom_site_label
  _atom_site_symmetry_multiplicity
  _atom_site_fract_x
  _atom_site_fract_y
  _atom_site_fract_z
  _atom_site_occupancy
  K   K1        1.0  0.5680350184416375  0.35607346720217303  0.8681471845018826  1.0000
  K   K2        1.0  0.7665793100726546  0.26952616145446984  0.24900070571000663  1.0000
  K   K3        1.0  0.2800686650007184  0.8271138796721935  0.4478702967864738  1.0000
  K   K4        1.0  0.284550599592578  0.8552101439445788  0.9197981094770555  1.0000
  N   N1        1.0  0.5791032393728134  0.4981571400975587  0.4648881667534481  1.0000
  N   N2        1.0  0.7162600700788999  0.886599113021787  0.07979414456016531  1.0000
  N   N3        1.0  0.6083065047127092  0.9793318345045929  0.6549344217495404  1.0000
  N   N4        1.0  0.16561710323960188  0.43911981818941176  0.1523058174457932  1.0000
  O   O1        1.0  0.7315952779037043  0.737670208400584  0.9877213269544532  1.0000
  O   O2        1.0  0.20304817626046479  0.29338093816112204  0.23897762826565078  1.0000
  O   O3        1.0  0.8978014230688236  0.9730477767171338  0.12877016282561082  1.0000
  O   O4        1.0  0.08257084959195415  0.6280226895425773  0.1616679911988951  1.0000
  O   O5        1.0  0.39526547892485897  0.08751586067715152  0.6255030008131336  1.0000
  O   O6        1.0  0.5757710532643849  0.8181039874025129  0.7243854099360079  1.0000
  O   O7        1.0  0.5301267136379988  0.9764980581264714  0.11547630128108555  1.0000
  O   O8        1.0  0.37718654948147096  0.47269200590062715  0.5188619108323288  1.0000
  O   O9        1.0  0.7960744915342438  0.053389871513098354  0.5997084394679568  1.0000
  O   O10       1.0  0.23467013572116358  0.4034350695548213  0.013699035438090592  1.0000
  O   O11       1.0  0.5907770961951666  0.5959138640439067  0.33854810907304606  1.0000
  O   O12       1.0  0.7645221665446369  0.4046207979018242  0.5309830065255168  1.0000
data_image91
_chemical_formula_structural       K4N4O12
_chemical_formula_sum              "K4 N4 O12"
_cell_length_a       5.602235
_cell_length_b       6.405085
_cell_length_c       9.268196
_cell_angle_alpha    90.0
_cell_angle_beta     90.0
_cell_angle_gamma    90.0

_space_group_name_H-M_alt    "P 1"
_space_group_IT_number       1

loop_
  _space_group_symop_operation_xyz
  'x, y, z'

loop_
  _atom_site_type_symbol
  _atom_site_label
  _atom_site_symmetry_multiplicity
  _atom_site_fract_x
  _atom_site_fract_y
  _atom_site_fract_z
  _atom_site_occupancy
  K   K1        1.0  0.5499763895512872  0.3385541555085056  0.822179247818463  1.0000
  K   K2        1.0  0.7475921940538883  0.370150064085633  0.25171455258290015  1.0000
  K   K3        1.0  0.10923597277096239  0.021431115313241822  0.3410310716760984  1.0000
  K   K4        1.0  0.26638126200847545  0.9012151345368632  0.9250033640229808  1.0000
  N   N1        1.0  0.574895115564213  0.49325423782559796  0.5374343213881588  1.0000
  N   N2        1.0  0.7081410234548473  0.8478778738736628  0.11561799353113167  1.0000
  N   N3        1.0  0.7523909922859229  0.8860457610214421  0.625550655074003  1.0000
  N   N4        1.0  0.18115047586541033  0.4051903107912888  0.13843320393410516  1.0000
  O   O1        1.0  0.7495836652542871  0.6755025765236838  0.036005892936354256  1.0000
  O   O2        1.0  0.34732770747356634  0.2823104612857965  0.1409330306736409  1.0000
  O   O3        1.0  0.8700186259360638  0.9813911002982374  0.09831607210970206  1.0000
  O   O4        1.0  0.1276279233101536  0.5241184484530759  0.2512533165262979  1.0000
  O   O5        1.0  0.5398693253322376  0.9153059029354647  0.6530239710382236  1.0000
  O   O6        1.0  0.8820479781082109  0.8330904125448495  0.7493359189057807  1.0000
  O   O7        1.0  0.5542447241492452  0.8898433792354759  0.19657179283103088  1.0000
  O   O8        1.0  0.366161363071086  0.3743561506833045  0.5850998289097505  1.0000
  O   O9        1.0  0.8497040882670409  0.8771238573918265  0.5030695824021452  1.0000
  O   O10       1.0  0.03722159964595129  0.39837142051974334  0.032287671840842865  1.0000
  O   O11       1.0  0.534316157761332  0.6169309942884874  0.4295583880445832  1.0000
  O   O12       1.0  0.7435193852726764  0.4347088634096563  0.6042202330427242  1.0000
data_image92
_chemical_formula_structural       K4N4O12
_chemical_formula_sum              "K4 N4 O12"
_cell_length_a       5.602235
_cell_length_b       6.405085
_cell_length_c       9.268196
_cell_angle_alpha    90.0
_cell_angle_beta     90.0
_cell_angle_gamma    90.0

_space_group_name_H-M_alt    "P 1"
_space_group_IT_number       1

loop_
  _space_group_symop_operation_xyz
  'x, y, z'

loop_
  _atom_site_type_symbol
  _atom_site_label
  _atom_site_symmetry_multiplicity
  _atom_site_fract_x
  _atom_site_fract_y
  _atom_site_fract_z
  _atom_site_occupancy
  K   K1        1.0  0.7010820766744695  0.37446829673013926  0.8593095890990178  1.0000
  K   K2        1.0  0.7075628491462872  0.46724275489871575  0.27749893386732827  1.0000
  K   K3        1.0  0.19424688354928085  0.14957390746822208  0.36622289792140017  1.0000
  K   K4        1.0  0.26582006298012245  0.8439197146278473  0.9180743023283552  1.0000
  N   N1        1.0  0.3975694318002379  0.3745909250457059  0.5449193191970702  1.0000
  N   N2        1.0  0.6917216578126133  0.8682776221910029  0.13378544627555367  1.0000
  N   N3        1.0  0.7591734192943926  0.8711584042688996  0.632447704941487  1.0000
  N   N4        1.0  0.2185483848035188  0.35428320416014936  0.0413239085105445  1.0000
  O   O1        1.0  0.7411276190065024  0.7045786302462707  0.05083150730876351  1.0000
  O   O2        1.0  0.29835461488924886  0.18630199486778143  0.02176745260787302  1.0000
  O   O3        1.0  0.8764796439720819  0.9756348229370434  0.14855228501671802  1.0000
  O   O4        1.0  0.2083393537497964  0.46467133436459873  0.16780597320958943  1.0000
  O   O5        1.0  0.5324412651692072  0.9164304975994738  0.6454354511114128  1.0000
  O   O6        1.0  0.8518769162059797  0.7442366712798325  0.726393066624582  1.0000
  O   O7        1.0  0.5335897785565841  0.9100434771787556  0.21098173580088297  1.0000
  O   O8        1.0  0.2703005807044178  0.22937969984113554  0.6346102311601446  1.0000
  O   O9        1.0  0.8953480894864243  0.9392217385072763  0.5396746121975858  1.0000
  O   O10       1.0  0.08374717963171907  0.45483244536952644  0.938812314111149  1.0000
  O   O11       1.0  0.30866041142160816  0.5601931677437721  0.4990959632260608  1.0000
  O   O12       1.0  0.6540890411802146  0.36324012423359275  0.5532980241797627  1.0000
data_image93
_chemical_formula_structural       K4N4O12
_chemical_formula_sum              "K4 N4 O12"
_cell_length_a       5.602235
_cell_length_b       6.405085
_cell_length_c       9.268196
_cell_angle_alpha    90.0
_cell_angle_beta     90.0
_cell_angle_gamma    90.0

_space_group_name_H-M_alt    "P 1"
_space_group_IT_number       1

loop_
  _space_group_symop_operation_xyz
  'x, y, z'

loop_
  _atom_site_type_symbol
  _atom_site_label
  _atom_site_symmetry_multiplicity
  _atom_site_fract_x
  _atom_site_fract_y
  _atom_site_fract_z
  _atom_site_occupancy
  K   K1        1.0  0.7524935060570263  0.27630821787804455  0.7253930842685377  1.0000
  K   K2        1.0  0.7046976696794578  0.5574503583923727  0.32057461011097477  1.0000
  K   K3        1.0  0.20177141799113077  0.042098407309417274  0.3588505119584175  1.0000
  K   K4        1.0  0.19554020916885156  0.9014924992993867  0.8388442832928208  1.0000
  N   N1        1.0  0.1898569864343167  0.3846251626357081  0.5757245372747039  1.0000
  N   N2        1.0  0.7181727634292854  0.00047706380184631136  0.17302115137019913  1.0000
  N   N3        1.0  0.8062433481527814  0.7730727414674254  0.6802065504064732  1.0000
  N   N4        1.0  0.37744577189048667  0.3675135678566417  0.06553219135701145  1.0000
  O   O1        1.0  0.6580239544839497  0.8660932722276806  0.0674844761994966  1.0000
  O   O2        1.0  0.37758251386702635  0.16768544226470394  0.05000173758821098  1.0000
  O   O3        1.0  0.8278196666745675  0.14611586497287088  0.12675939278795534  1.0000
  O   O4        1.0  0.23052526839801057  0.48159297546727164  0.1422298971558246  1.0000
  O   O5        1.0  0.5779641795869888  0.8731747840951369  0.7495751016977218  1.0000
  O   O6        1.0  0.9489246422950269  0.6617383127520124  0.7588559011724795  1.0000
  O   O7        1.0  0.7163865809342213  0.9478392997984885  0.3099437672573093  1.0000
  O   O8        1.0  0.20234649872275465  0.3325140271437082  0.7066947777693487  1.0000
  O   O9        1.0  0.8343021930267035  0.8330486689216381  0.5586281088902342  1.0000
  O   O10       1.0  0.49734966938342473  0.46436911205148584  0.9569155146938112  1.0000
  O   O11       1.0  0.004888374837169622  0.3471214032665914  0.5107401385104308  1.0000
  O   O12       1.0  0.39457405381837724  0.41776271708224827  0.5107921264877374  1.0000
data_image94
_chemical_formula_structural       K4N4O12
_chemical_formula_sum              "K4 N4 O12"
_cell_length_a       5.602235
_cell_length_b       6.405085
_cell_length_c       9.268196
_cell_angle_alpha    90.0
_cell_angle_beta     90.0
_cell_angle_gamma    90.0

_space_group_name_H-M_alt    "P 1"
_space_group_IT_number       1

loop_
  _space_group_symop_operation_xyz
  'x, y, z'

loop_
  _atom_site_type_symbol
  _atom_site_label
  _atom_site_symmetry_multiplicity
  _atom_site_fract_x
  _atom_site_fract_y
  _atom_site_fract_z
  _atom_site_occupancy
  K   K1        1.0  0.6196572702912172  0.25096911153714174  0.7255491739385598  1.0000
  K   K2        1.0  0.6515107920008888  0.4197417677803044  0.33182137089900693  1.0000
  K   K3        1.0  0.32264839099056447  0.014543240056938522  0.30040315309058174  1.0000
  K   K4        1.0  0.14217003492492958  0.07271148784591097  0.8407616243349247  1.0000
  N   N1        1.0  0.1490171703290429  0.37883014815821636  0.5301006692683807  1.0000
  N   N2        1.0  0.8370692494087102  0.9500936370000574  0.20108260290443747  1.0000
  N   N3        1.0  0.760295737278928  0.7247734629373884  0.7323851258497848  1.0000
  N   N4        1.0  0.41786078837935725  0.4992314350940896  0.04925239371912307  1.0000
  O   O1        1.0  0.6319186514093003  0.9128266258519991  0.1492605445650499  1.0000
  O   O2        1.0  0.32004554757943104  0.295234294285512  0.028180386332442218  1.0000
  O   O3        1.0  0.979204306797804  0.05400119797092451  0.12469563436057096  1.0000
  O   O4        1.0  0.2995767147341166  0.6203249044257064  0.13560328937452817  1.0000
  O   O5        1.0  0.6980755208950873  0.8819803806742716  0.8087530473147553  1.0000
  O   O6        1.0  0.8836442402931114  0.5677917480407495  0.7930330008198672  1.0000
  O   O7        1.0  0.8915921891180504  0.8506931341863855  0.3216440915726373  1.0000
  O   O8        1.0  0.2800820347983037  0.45068334471087695  0.6232195865461041  1.0000
  O   O9        1.0  0.7142004325355257  0.7386621857809553  0.59905376979982  1.0000
  O   O10       1.0  0.6053001834874636  0.530850488084056  0.9939732408195198  1.0000
  O   O11       1.0  0.07476682156397357  0.18533357973585254  0.5465054695390331  1.0000
  O   O12       1.0  0.11856966311382762  0.47075562965606216  0.41813962947967065  1.0000
data_image95
_chemical_formula_structural       K4N4O12
_chemical_formula_sum              "K4 N4 O12"
_cell_length_a       5.602235
_cell_length_b       6.405085
_cell_length_c       9.268196
_cell_angle_alpha    90.0
_cell_angle_beta     90.0
_cell_angle_gamma    90.0

_space_group_name_H-M_alt    "P 1"
_space_group_IT_number       1

loop_
  _space_group_symop_operation_xyz
  'x, y, z'

loop_
  _atom_site_type_symbol
  _atom_site_label
  _atom_site_symmetry_multiplicity
  _atom_site_fract_x
  _atom_site_fract_y
  _atom_site_fract_z
  _atom_site_occupancy
  K   K1        1.0  0.6323977715335659  0.263789254941546  0.7519446828778642  1.0000
  K   K2        1.0  0.5980260226509421  0.4866715840825736  0.28348633003949786  1.0000
  K   K3        1.0  0.38878059788962427  0.9180598024147487  0.35546779392669453  1.0000
  K   K4        1.0  0.06144850543408693  0.057929242402030345  0.8752724893002178  1.0000
  N   N1        1.0  0.14022373009278752  0.3791461168960904  0.49807424774093567  1.0000
  N   N2        1.0  0.9077433790046675  0.942756321963366  0.23267549448503244  1.0000
  N   N3        1.0  0.8297097051882016  0.7040873420139514  0.7310498108940159  1.0000
  N   N4        1.0  0.31493888277403914  0.5152504069607112  0.9855069867112551  1.0000
  O   O1        1.0  0.7989512454543264  0.7748019209129484  0.1705433999629753  1.0000
  O   O2        1.0  0.2190311951538899  0.3338722510313616  0.9782301810252713  1.0000
  O   O3        1.0  0.06970462206769326  0.03406225470787794  0.15417366292015022  1.0000
  O   O4        1.0  0.22327083454610785  0.665820575533955  0.039324049187323774  1.0000
  O   O5        1.0  0.6676049752198869  0.8220959761804888  0.778168614462227  1.0000
  O   O6        1.0  0.03923731633964955  0.728030561633541  0.7547314324595857  1.0000
  O   O7        1.0  0.8195752995308168  0.9926904688017814  0.35697837603200644  1.0000
  O   O8        1.0  0.3638044363448104  0.4633209790615221  0.5141326942180056  1.0000
  O   O9        1.0  0.7320208336884853  0.5692022098277388  0.657633746151042  1.0000
  O   O10       1.0  0.5530667270047864  0.523412891480692  0.002226885219381048  1.0000
  O   O11       1.0  0.11764582827792089  0.23021433769304422  0.5821519412491213  1.0000
  O   O12       1.0  0.006504646303678647  0.5073296250321554  0.4432623156524436  1.0000
data_image96
_chemical_formula_structural       K4N4O12
_chemical_formula_sum              "K4 N4 O12"
_cell_length_a       5.602235
_cell_length_b       6.405085
_cell_length_c       9.268196
_cell_angle_alpha    90.0
_cell_angle_beta     90.0
_cell_angle_gamma    90.0

_space_group_name_H-M_alt    "P 1"
_space_group_IT_number       1

loop_
  _space_group_symop_operation_xyz
  'x, y, z'

loop_
  _atom_site_type_symbol
  _atom_site_label
  _atom_site_symmetry_multiplicity
  _atom_site_fract_x
  _atom_site_fract_y
  _atom_site_fract_z
  _atom_site_occupancy
  K   K1        1.0  0.4667362546097633  0.1883812062621952  0.690400807370054  1.0000
  K   K2        1.0  0.6937172366302934  0.37447601311052153  0.24477132666503482  1.0000
  K   K3        1.0  0.2905869276589323  0.8033904455317736  0.37468497367291764  1.0000
  K   K4        1.0  0.9971940331323225  0.07031810037611619  0.972430542760652  1.0000
  N   N1        1.0  0.27830220143328943  0.43606608958012977  0.47543894981826545  1.0000
  N   N2        1.0  0.8212647731512586  0.9963997912977128  0.30654796909115123  1.0000
  N   N3        1.0  0.9168523415476616  0.7793666046207981  0.6760891050981004  1.0000
  N   N4        1.0  0.33041512432278397  0.5286575259116826  0.00187224438125831  1.0000
  O   O1        1.0  0.790809502571849  0.835702356799293  0.22237878503173225  1.0000
  O   O2        1.0  0.12938264463400628  0.4251878084295472  0.0328103801925931  1.0000
  O   O3        1.0  0.9924576853446162  0.10202199085377006  0.25786657371388344  1.0000
  O   O4        1.0  0.3738331217149826  0.6875975249529186  0.07659555835612283  1.0000
  O   O5        1.0  0.7224166991658746  0.8240520943182896  0.7618731278107553  1.0000
  O   O6        1.0  0.06770539121356678  0.9285770256212714  0.6504321274888023  1.0000
  O   O7        1.0  0.6875718326906093  0.053615543983514424  0.4160738209767352  1.0000
  O   O8        1.0  0.4491418481838721  0.5187020196881145  0.5407364175350508  1.0000
  O   O9        1.0  0.8946108953996724  0.6044371279086468  0.6115030419159517  1.0000
  O   O10       1.0  0.5162990161983811  0.4080290534192031  0.9458084219642909  1.0000
  O   O11       1.0  0.13618860371657518  0.3468839942907278  0.545504245456305  1.0000
  O   O12       1.0  0.2871586654124501  0.44179552190994137  0.3204356249654688  1.0000
data_image97
_chemical_formula_structural       K4N4O12
_chemical_formula_sum              "K4 N4 O12"
_cell_length_a       5.602235
_cell_length_b       6.405085
_cell_length_c       9.268196
_cell_angle_alpha    90.0
_cell_angle_beta     90.0
_cell_angle_gamma    90.0

_space_group_name_H-M_alt    "P 1"
_space_group_IT_number       1

loop_
  _space_group_symop_operation_xyz
  'x, y, z'

loop_
  _atom_site_type_symbol
  _atom_site_label
  _atom_site_symmetry_multiplicity
  _atom_site_fract_x
  _atom_site_fract_y
  _atom_site_fract_z
  _atom_site_occupancy
  K   K1        1.0  0.4877967823628117  0.17101937723814128  0.7538275730448563  1.0000
  K   K2        1.0  0.761922613341701  0.4403653637788997  0.2203896182455268  1.0000
  K   K3        1.0  0.27188156797643076  0.8532715405397547  0.4415810180064344  1.0000
  K   K4        1.0  0.035237011967192845  0.9990163752995889  0.9468643201927636  1.0000
  N   N1        1.0  0.3164875774171029  0.3768370679600595  0.4379208059798525  1.0000
  N   N2        1.0  0.7461033585153627  0.008935186631985115  0.3002036628261433  1.0000
  N   N3        1.0  0.9258988141230912  0.7721776203974547  0.6879235620519725  1.0000
  N   N4        1.0  0.3154213292541088  0.5363968049100796  0.0024362680309380487  1.0000
  O   O1        1.0  0.6599421081627561  0.8342784959832412  0.2490784913066082  1.0000
  O   O2        1.0  0.05710062130107274  0.5547208596343388  0.9934384748876782  1.0000
  O   O3        1.0  0.9102202044324326  0.06461251950144331  0.21412035293760012  1.0000
  O   O4        1.0  0.4223934432193708  0.7071836907152176  0.03154063056758592  1.0000
  O   O5        1.0  0.7748980603345337  0.8896268720164731  0.7632345446919253  1.0000
  O   O6        1.0  0.1308077973950743  0.8541293359582837  0.7035062465976925  1.0000
  O   O7        1.0  0.6757257672722647  0.1028712922471875  0.4117582782654339  1.0000
  O   O8        1.0  0.49803273868517417  0.40317331653396166  0.491005944962735  1.0000
  O   O9        1.0  0.8511476605114812  0.6999188570348984  0.5650260297989159  1.0000
  O   O10       1.0  0.38998093066735984  0.3288868860858083  0.9964160659697555  1.0000
  O   O11       1.0  0.19623651324407107  0.2204260850236772  0.47930098329727194  1.0000
  O   O12       1.0  0.25262326491986764  0.49133070435081533  0.31587720817117704  1.0000
data_image98
_chemical_formula_structural       K4N4O12
_chemical_formula_sum              "K4 N4 O12"
_cell_length_a       5.602235
_cell_length_b       6.405085
_cell_length_c       9.268196
_cell_angle_alpha    90.0
_cell_angle_beta     90.0
_cell_angle_gamma    90.0

_space_group_name_H-M_alt    "P 1"
_space_group_IT_number       1

loop_
  _space_group_symop_operation_xyz
  'x, y, z'

loop_
  _atom_site_type_symbol
  _atom_site_label
  _atom_site_symmetry_multiplicity
  _atom_site_fract_x
  _atom_site_fract_y
  _atom_site_fract_z
  _atom_site_occupancy
  K   K1        1.0  0.4406318052184184  0.23508009194524757  0.7545879313696779  1.0000
  K   K2        1.0  0.7225926003691435  0.4042050463213955  0.2277509927175064  1.0000
  K   K3        1.0  0.3569451860527148  0.8608724511588902  0.45496077888850056  1.0000
  K   K4        1.0  0.06447877864687684  0.03337351835749369  0.9535447255873015  1.0000
  N   N1        1.0  0.3109381741406262  0.4048378077622393  0.47974559806403205  1.0000
  N   N2        1.0  0.8041619058645778  0.9521913438281554  0.27886779480847346  1.0000
  N   N3        1.0  0.8739049122989507  0.7229976403551561  0.6508760104358058  1.0000
  N   N4        1.0  0.22438785128432714  0.5777302185890982  0.9874680754420071  1.0000
  O   O1        1.0  0.6560286772475813  0.8882828791471399  0.1809414063616348  1.0000
  O   O2        1.0  0.024169390132389612  0.5757177226652113  0.035542737132418935  1.0000
  O   O3        1.0  0.029822671919134285  0.9727480134422494  0.2371964415366281  1.0000
  O   O4        1.0  0.3291202483276279  0.7579549236089648  0.9415285120384445  1.0000
  O   O5        1.0  0.7427303944422748  0.8854708942027721  0.671486957303875  1.0000
  O   O6        1.0  0.02894102319137626  0.6844015307434578  0.7453311744100536  1.0000
  O   O7        1.0  0.7183349856825292  0.030185484216010305  0.38838448321961905  1.0000
  O   O8        1.0  0.4683447136139995  0.5024506526997716  0.5484162517909055  1.0000
  O   O9        1.0  0.9066954492602313  0.635693529587317  0.524767857508461  1.0000
  O   O10       1.0  0.36322006180632305  0.4216186715663754  0.03799318542591207  1.0000
  O   O11       1.0  0.24072387494274441  0.2160664575348956  0.5235020377633488  1.0000
  O   O12       1.0  0.31973183804503835  0.43861357328158307  0.3386619053291017  1.0000
data_image99
_chemical_formula_structural       K4N4O12
_chemical_formula_sum              "K4 N4 O12"
_cell_length_a       5.602235
_cell_length_b       6.405085
_cell_length_c       9.268196
_cell_angle_alpha    90.0
_cell_angle_beta     90.0
_cell_angle_gamma    90.0

_space_group_name_H-M_alt    "P 1"
_space_group_IT_number       1

loop_
  _space_group_symop_operation_xyz
  'x, y, z'

loop_
  _atom_site_type_symbol
  _atom_site_label
  _atom_site_symmetry_multiplicity
  _atom_site_fract_x
  _atom_site_fract_y
  _atom_site_fract_z
  _atom_site_occupancy
  K   K1        1.0  0.5463995465246104  0.24853734985739737  0.7743461865857181  1.0000
  K   K2        1.0  0.8320190079339743  0.43362266027037555  0.23674939979652354  1.0000
  K   K3        1.0  0.4089823557139649  0.803386978731349  0.3538722594000941  1.0000
  K   K4        1.0  0.8907135733610845  0.020576994723727537  0.9122858268209868  1.0000
  N   N1        1.0  0.313182740462644  0.4318436257305829  0.5177512093513447  1.0000
  N   N2        1.0  0.8288890862466283  0.9855769926563929  0.26720282848594756  1.0000
  N   N3        1.0  0.8507911999923051  0.7316774496716872  0.6537339102488815  1.0000
  N   N4        1.0  0.22177664883237158  0.5440821131887364  0.026174932009217555  1.0000
  O   O1        1.0  0.6563735939505417  0.9204623577244978  0.18874643636334731  1.0000
  O   O2        1.0  0.9813118057806209  0.48290102564084364  0.030212321801916617  1.0000
  O   O3        1.0  0.014390558902221278  0.021982072340183567  0.1851410612086115  1.0000
  O   O4        1.0  0.2893246812273014  0.7296377952571704  0.004572753174835866  1.0000
  O   O5        1.0  0.7201573452382589  0.898724323209525  0.6824836791638869  1.0000
  O   O6        1.0  0.9359293483226507  0.6616253088070598  0.7643830588504323  1.0000
  O   O7        1.0  0.8032912746610262  0.011959181303398791  0.40860781800776347  1.0000
  O   O8        1.0  0.4213401282343678  0.574265813816111  0.5964062334777491  1.0000
  O   O9        1.0  0.9073809017317204  0.6714345809573362  0.5279445218821766  1.0000
  O   O10       1.0  0.3321842169698388  0.3885480111739308  0.008716425766748305  1.0000
  O   O11       1.0  0.2003237759927745  0.2867200148791904  0.6040636518060056  1.0000
  O   O12       1.0  0.3349280102960897  0.3986485072744882  0.3884444275067204  1.0000
data_image100
_chemical_formula_structural       K4N4O12
_chemical_formula_sum              "K4 N4 O12"
_cell_length_a       5.602235
_cell_length_b       6.405085
_cell_length_c       9.268196
_cell_angle_alpha    90.0
_cell_angle_beta     90.0
_cell_angle_gamma    90.0

_space_group_name_H-M_alt    "P 1"
_space_group_IT_number       1

loop_
  _space_group_symop_operation_xyz
  'x, y, z'

loop_
  _atom_site_type_symbol
  _atom_site_label
  _atom_site_symmetry_multiplicity
  _atom_site_fract_x
  _atom_site_fract_y
  _atom_site_fract_z
  _atom_site_occupancy
  K   K1        1.0  0.7533956411534274  0.30460945555484265  0.7170053792202613  1.0000
  K   K2        1.0  0.8230374011911423  0.43313117417753627  0.2868310337438028  1.0000
  K   K3        1.0  0.3015208100985938  0.8399851836223826  0.4274973690246624  1.0000
  K   K4        1.0  0.8714660870312688  0.9287994077403752  0.9111438006189926  1.0000
  N   N1        1.0  0.24151898599689517  0.39654465480859336  0.5762898923993313  1.0000
  N   N2        1.0  0.7856238176450532  0.9631560445470024  0.22832280320149367  1.0000
  N   N3        1.0  0.8123434214249461  0.7409568569829241  0.6515940848634788  1.0000
  N   N4        1.0  0.29717003119579277  0.5537315764522537  0.9619810815353407  1.0000
  O   O1        1.0  0.637637136710242  0.08374261442204256  0.15778110387308297  1.0000
  O   O2        1.0  0.11447565357323652  0.46992181168600494  0.0011373096396040659  1.0000
  O   O3        1.0  0.0049570365253499725  0.9394561603346551  0.18199404331808733  1.0000
  O   O4        1.0  0.3300930710970089  0.7610266980008555  0.9537319080889107  1.0000
  O   O5        1.0  0.7071718573930678  0.9033846566299042  0.6603280111394184  1.0000
  O   O6        1.0  0.9033474656895423  0.6611630199292742  0.7619681751274775  1.0000
  O   O7        1.0  0.7384812256721838  0.9832862867501345  0.3731900350845059  1.0000
  O   O8        1.0  0.3447507246754486  0.5570685029197171  0.6322604249763301  1.0000
  O   O9        1.0  0.8323322672368662  0.6224380477515319  0.541634473134147  1.0000
  O   O10       1.0  0.48337536659424685  0.46654286685521423  0.925925364266366  1.0000
  O   O11       1.0  0.17134280465716753  0.24607844377481605  0.655684491377756  1.0000
  O   O12       1.0  0.22100449613389575  0.3894197331311181  0.42372092703791064  1.0000
data_image101
_chemical_formula_structural       K4N4O12
_chemical_formula_sum              "K4 N4 O12"
_cell_length_a       5.602235
_cell_length_b       6.405085
_cell_length_c       9.268196
_cell_angle_alpha    90.0
_cell_angle_beta     90.0
_cell_angle_gamma    90.0

_space_group_name_H-M_alt    "P 1"
_space_group_IT_number       1

loop_
  _space_group_symop_operation_xyz
  'x, y, z'

loop_
  _atom_site_type_symbol
  _atom_site_label
  _atom_site_symmetry_multiplicity
  _atom_site_fract_x
  _atom_site_fract_y
  _atom_site_fract_z
  _atom_site_occupancy
  K   K1        1.0  0.84212270998123  0.30306627277586945  0.7082436849323692  1.0000
  K   K2        1.0  0.8686890680732413  0.46892124975831795  0.2035994687028156  1.0000
  K   K3        1.0  0.21688821611431658  0.8363954301094196  0.4750692016739385  1.0000
  K   K4        1.0  0.8020428722589883  0.8593808182756658  0.9428782372466035  1.0000
  N   N1        1.0  0.30658406322564113  0.32506528408255536  0.5742988565885838  1.0000
  N   N2        1.0  0.7496159454483038  0.06443523233601622  0.2926959975824981  1.0000
  N   N3        1.0  0.774864928095909  0.7889883530617348  0.5960304040171138  1.0000
  N   N4        1.0  0.3371325294062071  0.5488404595965489  0.9496911852844049  1.0000
  O   O1        1.0  0.7032686894129984  0.14769853782302644  0.1755731218041443  1.0000
  O   O2        1.0  0.14554847840186813  0.447481190360376  0.942017358871978  1.0000
  O   O3        1.0  0.8037826293710763  0.8548332005071587  0.281419886724914  1.0000
  O   O4        1.0  0.3514304676238036  0.7555939676232944  0.974537264361801  1.0000
  O   O5        1.0  0.6253250148707428  0.9257202623959452  0.647640751045456  1.0000
  O   O6        1.0  0.9386215223272104  0.7484873598668741  0.6774315039502973  1.0000
  O   O7        1.0  0.7500022362436191  0.17135125114939553  0.412172489126307  1.0000
  O   O8        1.0  0.3906126106556172  0.465796536151523  0.6620231498167984  1.0000
  O   O9        1.0  0.7147408764690347  0.6614288267844006  0.5043080644140494  1.0000
  O   O10       1.0  0.5343400991143437  0.45499944072530646  0.9743189527004958  1.0000
  O   O11       1.0  0.26245057232822416  0.13852436334832666  0.6264360662725545  1.0000
  O   O12       1.0  0.28392053544888585  0.3421562848798565  0.4302963103416649  1.0000
data_image102
_chemical_formula_structural       K4N4O12
_chemical_formula_sum              "K4 N4 O12"
_cell_length_a       5.602235
_cell_length_b       6.405085
_cell_length_c       9.268196
_cell_angle_alpha    90.0
_cell_angle_beta     90.0
_cell_angle_gamma    90.0

_space_group_name_H-M_alt    "P 1"
_space_group_IT_number       1

loop_
  _space_group_symop_operation_xyz
  'x, y, z'

loop_
  _atom_site_type_symbol
  _atom_site_label
  _atom_site_symmetry_multiplicity
  _atom_site_fract_x
  _atom_site_fract_y
  _atom_site_fract_z
  _atom_site_occupancy
  K   K1        1.0  0.8558868520055986  0.29065924759440204  0.7469210772405573  1.0000
  K   K2        1.0  0.8476509955465044  0.5162869082770247  0.20030589093719595  1.0000
  K   K3        1.0  0.29274863895226316  0.8039721174447931  0.4015899702657748  1.0000
  K   K4        1.0  0.740895071869708  0.8453553339845893  0.9244701008698794  1.0000
  N   N1        1.0  0.3063369388617919  0.2734065281407988  0.5351596870378666  1.0000
  N   N2        1.0  0.728107455532828  0.1006614919583666  0.2997996637594793  1.0000
  N   N3        1.0  0.882862739003886  0.7892336796985038  0.5898726713173856  1.0000
  N   N4        1.0  0.2683644584767835  0.5858500602230761  0.04086540664256736  1.0000
  O   O1        1.0  0.5323685540944478  0.13126107747994076  0.2434907233048278  1.0000
  O   O2        1.0  0.09839373924354078  0.4479446661620067  0.948431527267231  1.0000
  O   O3        1.0  0.8057092576954451  0.9122138867819026  0.2614099349459331  1.0000
  O   O4        1.0  0.2115779779129674  0.7764810121256168  0.05888309803928885  1.0000
  O   O5        1.0  0.6736089222863545  0.8885606721033273  0.5670405209917491  1.0000
  O   O6        1.0  0.9987093967610164  0.8469993667848534  0.7002462354769237  1.0000
  O   O7        1.0  0.8361154974434566  0.20395341875198203  0.38967936433134276  1.0000
  O   O8        1.0  0.32421230552173186  0.4322920154567163  0.6154574133794033  1.0000
  O   O9        1.0  0.9209305362727855  0.6238868715968421  0.529775725397495  1.0000
  O   O10       1.0  0.4440332819462136  0.503683890319936  0.09269053587281148  1.0000
  O   O11       1.0  0.36052944265796977  0.09123719005100484  0.5922292141583196  1.0000
  O   O12       1.0  0.26287423842369473  0.25986908684622545  0.40002331785115897  1.0000
data_image103
_chemical_formula_structural       K4N4O12
_chemical_formula_sum              "K4 N4 O12"
_cell_length_a       5.602235
_cell_length_b       6.405085
_cell_length_c       9.268196
_cell_angle_alpha    90.0
_cell_angle_beta     90.0
_cell_angle_gamma    90.0

_space_group_name_H-M_alt    "P 1"
_space_group_IT_number       1

loop_
  _space_group_symop_operation_xyz
  'x, y, z'

loop_
  _atom_site_type_symbol
  _atom_site_label
  _atom_site_symmetry_multiplicity
  _atom_site_fract_x
  _atom_site_fract_y
  _atom_site_fract_z
  _atom_site_occupancy
  K   K1        1.0  0.913209621660962  0.31358206349820894  0.7368812213035448  1.0000
  K   K2        1.0  0.8839981720558343  0.5433365989795322  0.27475631284693935  1.0000
  K   K3        1.0  0.40086199509219356  0.7532166175949292  0.33698778486718695  1.0000
  K   K4        1.0  0.622241699429988  0.8666529141135203  0.9205057339805488  1.0000
  N   N1        1.0  0.3184766700748553  0.3146349128434345  0.565532009067  1.0000
  N   N2        1.0  0.801659865162102  0.07743690555988536  0.26596896646406964  1.0000
  N   N3        1.0  0.8414806091697921  0.7460855679012413  0.6254758337223372  1.0000
  N   N4        1.0  0.1697488797606035  0.5679677539187034  0.033403964561461996  1.0000
  O   O1        1.0  0.6669918955278378  0.12801411734481283  0.15308666262027648  1.0000
  O   O2        1.0  0.00462523512757107  0.44205980197724054  0.012867039655556184  1.0000
  O   O3        1.0  0.9505487152432879  0.9559210783625907  0.23440744165715421  1.0000
  O   O4        1.0  0.14396659052930239  0.7560538842059261  0.9740560286476396  1.0000
  O   O5        1.0  0.6771593655516082  0.8348565431935306  0.6969971695024552  1.0000
  O   O6        1.0  0.05179776222746435  0.730919678959334  0.6666356634913461  1.0000
  O   O7        1.0  0.7535868881994235  0.1402530189293445  0.3890979779262158  1.0000
  O   O8        1.0  0.448295624686946  0.42151363518962487  0.6372497211151317  1.0000
  O   O9        1.0  0.7696980173871578  0.6629896552557473  0.5031959656351823  1.0000
  O   O10       1.0  0.3681597043003988  0.5340034971967844  0.08934338905274163  1.0000
  O   O11       1.0  0.27661598805194865  0.10253089787481127  0.5883791746967388  1.0000
  O   O12       1.0  0.19909528615711686  0.40001490479326257  0.44347685910331736  1.0000
data_image104
_chemical_formula_structural       K4N4O12
_chemical_formula_sum              "K4 N4 O12"
_cell_length_a       5.602235
_cell_length_b       6.405085
_cell_length_c       9.268196
_cell_angle_alpha    90.0
_cell_angle_beta     90.0
_cell_angle_gamma    90.0

_space_group_name_H-M_alt    "P 1"
_space_group_IT_number       1

loop_
  _space_group_symop_operation_xyz
  'x, y, z'

loop_
  _atom_site_type_symbol
  _atom_site_label
  _atom_site_symmetry_multiplicity
  _atom_site_fract_x
  _atom_site_fract_y
  _atom_site_fract_z
  _atom_site_occupancy
  K   K1        1.0  0.921326027077154  0.30339276558875816  0.7292120266193519  1.0000
  K   K2        1.0  0.9124115086994592  0.4758128934041809  0.28268517197814075  1.0000
  K   K3        1.0  0.3650237332823323  0.8300550365097825  0.3625671218112316  1.0000
  K   K4        1.0  0.578795240780837  0.8237101594686511  0.02922599895243616  1.0000
  N   N1        1.0  0.3230450330943235  0.3295329137392885  0.5572759023347275  1.0000
  N   N2        1.0  0.8553511326560796  0.07029829373593777  0.19037400704824958  1.0000
  N   N3        1.0  0.7503963994847362  0.8094563885415194  0.6200692550001312  1.0000
  N   N4        1.0  0.18353116464828378  0.5177183570270936  0.008472183871214704  1.0000
  O   O1        1.0  0.8683602847289759  0.060583224301650196  0.057372185682496246  1.0000
  O   O2        1.0  0.9802693170330872  0.44402092602474486  0.985785273113852  1.0000
  O   O3        1.0  0.03668587489567941  0.9780270201839827  0.251040028269385  1.0000
  O   O4        1.0  0.2450773182533501  0.6384585091633699  0.8967772443889318  1.0000
  O   O5        1.0  0.629093721691632  0.9742804233808247  0.6922695663718718  1.0000
  O   O6        1.0  0.9522717798902935  0.7525125127788488  0.6816216430781648  1.0000
  O   O7        1.0  0.7166462191579244  0.14112693096140738  0.3095627056664838  1.0000
  O   O8        1.0  0.44126184864259094  0.4096144828848463  0.6709433715741991  1.0000
  O   O9        1.0  0.6842364584845158  0.7149185858223921  0.5095926331336735  1.0000
  O   O10       1.0  0.3269285025739812  0.4855275159381341  0.11018386984343864  1.0000
  O   O11       1.0  0.296539348821717  0.13442876713218993  0.5246239218054813  1.0000
  O   O12       1.0  0.2562643294502224  0.46443238201899206  0.4689917043045303  1.0000
data_image105
_chemical_formula_structural       K4N4O12
_chemical_formula_sum              "K4 N4 O12"
_cell_length_a       5.602235
_cell_length_b       6.405085
_cell_length_c       9.268196
_cell_angle_alpha    90.0
_cell_angle_beta     90.0
_cell_angle_gamma    90.0

_space_group_name_H-M_alt    "P 1"
_space_group_IT_number       1

loop_
  _space_group_symop_operation_xyz
  'x, y, z'

loop_
  _atom_site_type_symbol
  _atom_site_label
  _atom_site_symmetry_multiplicity
  _atom_site_fract_x
  _atom_site_fract_y
  _atom_site_fract_z
  _atom_site_occupancy
  K   K1        1.0  0.9102625620365293  0.2759122304381506  0.7958627993743177  1.0000
  K   K2        1.0  0.845876251913931  0.4618164653189282  0.3163424986167197  1.0000
  K   K3        1.0  0.31034680626527444  0.904444107135783  0.5106939335423264  1.0000
  K   K4        1.0  0.525288894762483  0.8112746574839415  0.9423372311188031  1.0000
  N   N1        1.0  0.3976281196897259  0.40557323455246475  0.5015514144156128  1.0000
  N   N2        1.0  0.9390944395629451  0.9553224156095471  0.12573641092575016  1.0000
  N   N3        1.0  0.7820817114664802  0.854836638246822  0.652251473335578  1.0000
  N   N4        1.0  0.09417425106032229  0.4925497637480008  0.9938890600426596  1.0000
  O   O1        1.0  0.1041314516311999  0.9697789963912331  0.03351820862268684  1.0000
  O   O2        1.0  0.8923553171782781  0.5447848881823782  0.9946082237808024  1.0000
  O   O3        1.0  0.00021262438968532905  0.9048097367884159  0.2739377220288861  1.0000
  O   O4        1.0  0.19999451718758432  0.4935325092763593  0.8530400508400074  1.0000
  O   O5        1.0  0.5958324585319198  0.7936167757802097  0.7191829871128552  1.0000
  O   O6        1.0  0.9855003572135463  0.8548788952140028  0.7360741790131775  1.0000
  O   O7        1.0  0.7284636547926671  0.02651507518824836  0.12777864937361993  1.0000
  O   O8        1.0  0.6133358485711013  0.47420745110487394  0.5629855926632915  1.0000
  O   O9        1.0  0.8060964970081761  0.8506277936162929  0.5146000825208142  1.0000
  O   O10       1.0  0.24597657970349251  0.4624455390550213  0.08944174362452574  1.0000
  O   O11       1.0  0.24695870236854076  0.33468799328051235  0.5728623230417077  1.0000
  O   O12       1.0  0.3778417077908665  0.45304613153653545  0.3768023883800162  1.0000
data_image106
_chemical_formula_structural       K4N4O12
_chemical_formula_sum              "K4 N4 O12"
_cell_length_a       5.602235
_cell_length_b       6.405085
_cell_length_c       9.268196
_cell_angle_alpha    90.0
_cell_angle_beta     90.0
_cell_angle_gamma    90.0

_space_group_name_H-M_alt    "P 1"
_space_group_IT_number       1

loop_
  _space_group_symop_operation_xyz
  'x, y, z'

loop_
  _atom_site_type_symbol
  _atom_site_label
  _atom_site_symmetry_multiplicity
  _atom_site_fract_x
  _atom_site_fract_y
  _atom_site_fract_z
  _atom_site_occupancy
  K   K1        1.0  0.8315493752992427  0.3766094657580134  0.7160427340497779  1.0000
  K   K2        1.0  0.8934432796962483  0.5083725450007954  0.2882235471986262  1.0000
  K   K3        1.0  0.2347327519884891  0.9111627506262316  0.5426128899639303  1.0000
  K   K4        1.0  0.5880398057983873  0.8219275840266985  0.965354959436149  1.0000
  N   N1        1.0  0.3506978315969978  0.33086887816033433  0.49890681749340554  1.0000
  N   N2        1.0  0.016930488716128397  0.978032946857235  0.15245045290749548  1.0000
  N   N3        1.0  0.7594220396086917  0.8388074130909022  0.6345538444657932  1.0000
  N   N4        1.0  0.17977247292870135  0.4289389468639971  0.01858028373948001  1.0000
  O   O1        1.0  0.13190208318110433  0.9294952522831195  0.04522163933584333  1.0000
  O   O2        1.0  0.9692848975866407  0.5332874468120734  0.0324296913516377  1.0000
  O   O3        1.0  0.07362074005887795  0.9733046529534388  0.2882806472060053  1.0000
  O   O4        1.0  0.2996300257307476  0.5101253885056549  0.9185064188094741  1.0000
  O   O5        1.0  0.5499167147241943  0.7614704760189793  0.6948775836361628  1.0000
  O   O6        1.0  0.8443342368902446  0.9924347615369145  0.6909403495365576  1.0000
  O   O7        1.0  0.8182450792049739  0.10594878073008984  0.14194459210941046  1.0000
  O   O8        1.0  0.5869036399138443  0.2739945017369651  0.5343638376634731  1.0000
  O   O9        1.0  0.7855398774768486  0.7667033301894788  0.5092389876291631  1.0000
  O   O10       1.0  0.22879609458217143  0.33129263909844586  0.1175192631772559  1.0000
  O   O11       1.0  0.22284681017446842  0.32370947168797876  0.6053611311162985  1.0000
  O   O12       1.0  0.3118421748299175  0.37397686029353666  0.37613989014997395  1.0000
data_image107
_chemical_formula_structural       K4N4O12
_chemical_formula_sum              "K4 N4 O12"
_cell_length_a       5.602235
_cell_length_b       6.405085
_cell_length_c       9.268196
_cell_angle_alpha    90.0
_cell_angle_beta     90.0
_cell_angle_gamma    90.0

_space_group_name_H-M_alt    "P 1"
_space_group_IT_number       1

loop_
  _space_group_symop_operation_xyz
  'x, y, z'

loop_
  _atom_site_type_symbol
  _atom_site_label
  _atom_site_symmetry_multiplicity
  _atom_site_fract_x
  _atom_site_fract_y
  _atom_site_fract_z
  _atom_site_occupancy
  K   K1        1.0  0.856866488811502  0.42231276330781753  0.6688347460746638  1.0000
  K   K2        1.0  0.8360244329464864  0.48754522304627446  0.3059773744104546  1.0000
  K   K3        1.0  0.19505326408276727  0.8179378085065099  0.5198667949737978  1.0000
  K   K4        1.0  0.6066458770471763  0.81873079840582  0.9796000125654363  1.0000
  N   N1        1.0  0.4178561944830623  0.3298299212597908  0.4872614953579292  1.0000
  N   N2        1.0  0.013137824306392952  0.9930309341267749  0.17627050472984318  1.0000
  N   N3        1.0  0.705975935220396  0.906253508345282  0.6648783652745915  1.0000
  N   N4        1.0  0.17305167250220244  0.43886430579537444  0.017761429216898605  1.0000
  O   O1        1.0  0.18057325962783377  0.9550772018001549  0.07675734731881922  1.0000
  O   O2        1.0  0.9688441562087164  0.44972001628813363  0.9906051060725305  1.0000
  O   O3        1.0  0.02180259693829124  0.8953128063706263  0.2974811697831121  1.0000
  O   O4        1.0  0.3463399389161037  0.4212696266733428  0.8982828936354754  1.0000
  O   O5        1.0  0.5025240079497687  0.8041801649736862  0.7187784911602607  1.0000
  O   O6        1.0  0.8003075411788964  0.02007202798338776  0.7580288477212945  1.0000
  O   O7        1.0  0.8715236534127062  0.1352104189381922  0.15442383201923215  1.0000
  O   O8        1.0  0.5507358109174623  0.19883711680062924  0.41223142024231385  1.0000
  O   O9        1.0  0.7895834303163756  0.8456199829878094  0.5477626329637644  1.0000
  O   O10       1.0  0.25226557082857815  0.4651629720156898  0.14019159270399517  1.0000
  O   O11       1.0  0.2418795585439781  0.258812681106686  0.5617287797530479  1.0000
  O   O12       1.0  0.4271303213937952  0.5253750964546196  0.4549425493631424  1.0000
data_image108
_chemical_formula_structural       K4N4O12
_chemical_formula_sum              "K4 N4 O12"
_cell_length_a       5.602235
_cell_length_b       6.405085
_cell_length_c       9.268196
_cell_angle_alpha    90.0
_cell_angle_beta     90.0
_cell_angle_gamma    90.0

_space_group_name_H-M_alt    "P 1"
_space_group_IT_number       1

loop_
  _space_group_symop_operation_xyz
  'x, y, z'

loop_
  _atom_site_type_symbol
  _atom_site_label
  _atom_site_symmetry_multiplicity
  _atom_site_fract_x
  _atom_site_fract_y
  _atom_site_fract_z
  _atom_site_occupancy
  K   K1        1.0  0.8899066558890706  0.35231963561381735  0.707538908363099  1.0000
  K   K2        1.0  0.9055013877257626  0.4153751573449525  0.28760237921754506  1.0000
  K   K3        1.0  0.1730857230801378  0.891304437813371  0.5086493769076189  1.0000
  K   K4        1.0  0.5701474847028105  0.7257438081155034  0.0738710847083559  1.0000
  N   N1        1.0  0.39788531959071083  0.3592973311246636  0.44407732285971446  1.0000
  N   N2        1.0  0.03425196700436053  0.013716623933888394  0.13409508400585124  1.0000
  N   N3        1.0  0.617681126604923  0.909822925676114  0.7420678971182827  1.0000
  N   N4        1.0  0.20982557754699815  0.4564712254246131  0.9477406971111284  1.0000
  O   O1        1.0  0.2621664915153381  0.030024780218399938  0.14400349372498367  1.0000
  O   O2        1.0  0.03997293220954812  0.5612223650198768  0.9327830662180436  1.0000
  O   O3        1.0  0.923174916030113  0.8896956110242249  0.21927339721713324  1.0000
  O   O4        1.0  0.33043199540477075  0.3953096272622555  0.8479502489108933  1.0000
  O   O5        1.0  0.44598733508006017  0.8727011364544411  0.8348138393690178  1.0000
  O   O6        1.0  0.8388966218591212  0.9367891889390483  0.7798268358382752  1.0000
  O   O7        1.0  0.9620450272294561  0.11605144633565945  0.034845652515188785  1.0000
  O   O8        1.0  0.4886758042289774  0.2083529737807252  0.38452558699864275  1.0000
  O   O9        1.0  0.601695088748036  0.9440384028868283  0.6155272276850775  1.0000
  O   O10       1.0  0.27529450734979677  0.46744970442650524  0.08008351171688362  1.0000
  O   O11       1.0  0.17204467933207737  0.37093403168345396  0.46526949324200395  1.0000
  O   O12       1.0  0.5482069977364188  0.5160900325110266  0.48736391435788334  1.0000
data_image109
_chemical_formula_structural       K4N4O12
_chemical_formula_sum              "K4 N4 O12"
_cell_length_a       5.602235
_cell_length_b       6.405085
_cell_length_c       9.268196
_cell_angle_alpha    90.0
_cell_angle_beta     90.0
_cell_angle_gamma    90.0

_space_group_name_H-M_alt    "P 1"
_space_group_IT_number       1

loop_
  _space_group_symop_operation_xyz
  'x, y, z'

loop_
  _atom_site_type_symbol
  _atom_site_label
  _atom_site_symmetry_multiplicity
  _atom_site_fract_x
  _atom_site_fract_y
  _atom_site_fract_z
  _atom_site_occupancy
  K   K1        1.0  0.8160944746915819  0.3565267620514588  0.7293725561830227  1.0000
  K   K2        1.0  0.9360243300174832  0.3625866067110805  0.23419983421144688  1.0000
  K   K3        1.0  0.1305156802364802  0.8229697195816453  0.4917561650720615  1.0000
  K   K4        1.0  0.6246626338458889  0.6988766944637123  0.0836468194379929  1.0000
  N   N1        1.0  0.4406164135277993  0.383375910825278  0.46186794947923054  1.0000
  N   N2        1.0  0.06284465517204475  0.961283924890335  0.15539058121482818  1.0000
  N   N3        1.0  0.584948218589528  0.9833236431225534  0.7150073529921073  1.0000
  N   N4        1.0  0.19792929764164624  0.5231241823109145  0.9565953210600522  1.0000
  O   O1        1.0  0.26129312150029327  0.8500576610602406  0.1890379740837298  1.0000
  O   O2        1.0  0.0635308612606924  0.663409645515192  0.9085463134173075  1.0000
  O   O3        1.0  0.8600973368054248  0.9815678403116793  0.2558018640642832  1.0000
  O   O4        1.0  0.2271177579843473  0.36101831766173725  0.8806926271330904  1.0000
  O   O5        1.0  0.49291371740895884  0.027453067970971558  0.8463166712389575  1.0000
  O   O6        1.0  0.8157575174276889  0.9982959453124589  0.6955565421291328  1.0000
  O   O7        1.0  0.04918974227680762  0.03275103544052116  0.034909552741244854  1.0000
  O   O8        1.0  0.4647691656337533  0.2562537535464058  0.36795057423755656  1.0000
  O   O9        1.0  0.47246900389854524  0.9825194775721381  0.6023650506725955  1.0000
  O   O10       1.0  0.2613137088299853  0.5087918452080117  0.09056460150491107  1.0000
  O   O11       1.0  0.3090917617886662  0.41005248500791186  0.5542637721404826  1.0000
  O   O12       1.0  0.6620918609486733  0.4900758103512787  0.4769068291136167  1.0000
data_image110
_chemical_formula_structural       K4N4O12
_chemical_formula_sum              "K4 N4 O12"
_cell_length_a       5.602235
_cell_length_b       6.405085
_cell_length_c       9.268196
_cell_angle_alpha    90.0
_cell_angle_beta     90.0
_cell_angle_gamma    90.0

_space_group_name_H-M_alt    "P 1"
_space_group_IT_number       1

loop_
  _space_group_symop_operation_xyz
  'x, y, z'

loop_
  _atom_site_type_symbol
  _atom_site_label
  _atom_site_symmetry_multiplicity
  _atom_site_fract_x
  _atom_site_fract_y
  _atom_site_fract_z
  _atom_site_occupancy
  K   K1        1.0  0.8191152646394709  0.3236233750114614  0.7680626899249491  1.0000
  K   K2        1.0  0.9437522615292588  0.3888625347088709  0.26981116147579276  1.0000
  K   K3        1.0  0.9992960427096587  0.733840065055693  0.47496097672453275  1.0000
  K   K4        1.0  0.6876379905782463  0.7703430860866649  0.0717863572512425  1.0000
  N   N1        1.0  0.45960653464292406  0.44263105087035776  0.4432018885511606  1.0000
  N   N2        1.0  0.13306733845500285  0.9884307855705959  0.21271970389646921  1.0000
  N   N3        1.0  0.5528437602670371  0.9341435601590582  0.68027060837635  1.0000
  N   N4        1.0  0.204203778885095  0.5009991152535059  0.9469581860451133  1.0000
  O   O1        1.0  0.3268906188825407  0.936190145613412  0.26082721816398413  1.0000
  O   O2        1.0  0.017049665984055995  0.5943375126144204  0.9145682786878218  1.0000
  O   O3        1.0  0.9179597125327862  0.966148689515814  0.2853398016544064  1.0000
  O   O4        1.0  0.2519108076282712  0.33934378330253934  0.8662988473284069  1.0000
  O   O5        1.0  0.5464275791573094  0.009990314093920271  0.8012471303060001  1.0000
  O   O6        1.0  0.7382643182955444  0.9704682075995856  0.6029020006462832  1.0000
  O   O7        1.0  0.14685153843899632  0.04914433093257653  0.0736442822251846  1.0000
  O   O8        1.0  0.39489230871827774  0.4104499416169239  0.30668687291608016  1.0000
  O   O9        1.0  0.38627083766363396  0.8568577221599575  0.6132323705556534  1.0000
  O   O10       1.0  0.34109128305889436  0.5485717649761307  0.05070022409294209  1.0000
  O   O11       1.0  0.27937772234833524  0.4425959014004782  0.5348534271214456  1.0000
  O   O12       1.0  0.6760023654544165  0.4869794307111119  0.4861861561255622  1.0000
data_image111
_chemical_formula_structural       K4N4O12
_chemical_formula_sum              "K4 N4 O12"
_cell_length_a       5.602235
_cell_length_b       6.405085
_cell_length_c       9.268196
_cell_angle_alpha    90.0
_cell_angle_beta     90.0
_cell_angle_gamma    90.0

_space_group_name_H-M_alt    "P 1"
_space_group_IT_number       1

loop_
  _space_group_symop_operation_xyz
  'x, y, z'

loop_
  _atom_site_type_symbol
  _atom_site_label
  _atom_site_symmetry_multiplicity
  _atom_site_fract_x
  _atom_site_fract_y
  _atom_site_fract_z
  _atom_site_occupancy
  K   K1        1.0  0.8279313308647243  0.28462318737981906  0.7497319103482079  1.0000
  K   K2        1.0  0.8740573759401792  0.33144031506849825  0.23614571222273203  1.0000
  K   K3        1.0  0.9964612362528731  0.7348016850284788  0.5005503830440109  1.0000
  K   K4        1.0  0.7120310403947543  0.9329141232127394  0.05942231843920487  1.0000
  N   N1        1.0  0.40998047797050724  0.39806373118171245  0.44739870208126503  1.0000
  N   N2        1.0  0.24942370980103562  0.0006553802279931631  0.22029920056685603  1.0000
  N   N3        1.0  0.45100432774763155  0.964350313899121  0.6989339325268901  1.0000
  N   N4        1.0  0.2479890978384267  0.48181924081427874  0.9383392155226273  1.0000
  O   O1        1.0  0.45224600383437424  0.9483706362144015  0.2788516003980992  1.0000
  O   O2        1.0  0.05601710890445322  0.5112834332222598  0.000578451996062652  1.0000
  O   O3        1.0  0.04313769867859094  0.9017846897264646  0.25609624627645555  1.0000
  O   O4        1.0  0.2556863400799334  0.46743546457765817  0.7936911935405914  1.0000
  O   O5        1.0  0.5104401891913227  0.05200933761603267  0.8028958756196949  1.0000
  O   O6        1.0  0.5768482305263266  0.941061740097662  0.5747535963918669  1.0000
  O   O7        1.0  0.25171825432402267  0.15686630322126982  0.14308214076866332  1.0000
  O   O8        1.0  0.4899003549741366  0.4535915688424347  0.33132318263488475  1.0000
  O   O9        1.0  0.2680288748434183  0.86176723084739  0.693693167244517  1.0000
  O   O10       1.0  0.44326214002187103  0.4809329735838391  0.9966961736399036  1.0000
  O   O11       1.0  0.19827865673062078  0.2978496345615731  0.45286699070480374  1.0000
  O   O12       1.0  0.5611902635302596  0.39219396529312295  0.5462512239825648  1.0000
data_image112
_chemical_formula_structural       K4N4O12
_chemical_formula_sum              "K4 N4 O12"
_cell_length_a       5.602235
_cell_length_b       6.405085
_cell_length_c       9.268196
_cell_angle_alpha    90.0
_cell_angle_beta     90.0
_cell_angle_gamma    90.0

_space_group_name_H-M_alt    "P 1"
_space_group_IT_number       1

loop_
  _space_group_symop_operation_xyz
  'x, y, z'

loop_
  _atom_site_type_symbol
  _atom_site_label
  _atom_site_symmetry_multiplicity
  _atom_site_fract_x
  _atom_site_fract_y
  _atom_site_fract_z
  _atom_site_occupancy
  K   K1        1.0  0.8838014166609622  0.32036385829113784  0.7107457302303187  1.0000
  K   K2        1.0  0.876567129942888  0.368191621590771  0.25659553073522096  1.0000
  K   K3        1.0  0.8972782822939622  0.7544246573381908  0.5097625795581973  1.0000
  K   K4        1.0  0.7297819190684793  0.9640815895549926  0.04120941560668823  1.0000
  N   N1        1.0  0.39305544104875395  0.40758397544974856  0.441644561460247  1.0000
  N   N2        1.0  0.30937539718654367  0.8882433821092066  0.23686090312654273  1.0000
  N   N3        1.0  0.3682992386442663  0.8823392771629952  0.6980691288505914  1.0000
  N   N4        1.0  0.3163681318707603  0.5467437408595334  0.9371478065084878  1.0000
  O   O1        1.0  0.4913333253088863  0.9182890430043673  0.32791768399623433  1.0000
  O   O2        1.0  0.17907595409635557  0.5307429123602511  0.049021177720103566  1.0000
  O   O3        1.0  0.10531186601618538  0.8051804782789974  0.2701450754422432  1.0000
  O   O4        1.0  0.234476715363243  0.617453797380499  0.8258862971295785  1.0000
  O   O5        1.0  0.5454695672594567  0.97790220455377  0.7257366765681286  1.0000
  O   O6        1.0  0.33515999248805983  0.7518084657706008  0.6105874236700655  1.0000
  O   O7        1.0  0.3181201891081016  0.011415680750370027  0.12940134260130254  1.0000
  O   O8        1.0  0.3910557450660205  0.46106505991175584  0.30642122781901987  1.0000
  O   O9        1.0  0.16879485548487233  0.9727373648305807  0.7186220431025615  1.0000
  O   O10       1.0  0.5518927574269439  0.5071377052376276  0.963562060774706  1.0000
  O   O11       1.0  0.2221308269557672  0.40941546582997485  0.5300387475501664  1.0000
  O   O12       1.0  0.5883611051392144  0.3032432129783338  0.4730173873847271  1.0000
data_image113
_chemical_formula_structural       K4N4O12
_chemical_formula_sum              "K4 N4 O12"
_cell_length_a       5.602235
_cell_length_b       6.405085
_cell_length_c       9.268196
_cell_angle_alpha    90.0
_cell_angle_beta     90.0
_cell_angle_gamma    90.0

_space_group_name_H-M_alt    "P 1"
_space_group_IT_number       1

loop_
  _space_group_symop_operation_xyz
  'x, y, z'

loop_
  _atom_site_type_symbol
  _atom_site_label
  _atom_site_symmetry_multiplicity
  _atom_site_fract_x
  _atom_site_fract_y
  _atom_site_fract_z
  _atom_site_occupancy
  K   K1        1.0  0.8164880985071985  0.37252891091880913  0.7544391581247906  1.0000
  K   K2        1.0  0.9058444306021762  0.498559185409609  0.2273724644872568  1.0000
  K   K3        1.0  0.7298982582141651  0.8384766922160518  0.5182190180239288  1.0000
  K   K4        1.0  0.8394474557015911  0.8521712207606691  0.9716694543380237  1.0000
  N   N1        1.0  0.4392028243447971  0.33057832720850394  0.456953815641925  1.0000
  N   N2        1.0  0.23880221132719803  0.9194766764985118  0.2290391819240063  1.0000
  N   N3        1.0  0.290072956640501  0.970601124118023  0.7214407001310219  1.0000
  N   N4        1.0  0.4538352445487459  0.46980797649907763  0.9373217268942485  1.0000
  O   O1        1.0  0.44388731864036246  0.9180770098284796  0.30307076692430535  1.0000
  O   O2        1.0  0.26142080759060327  0.45594791968043663  0.0037738993410979488  1.0000
  O   O3        1.0  0.008649844565196107  0.88937006876411  0.26815031820951774  1.0000
  O   O4        1.0  0.43208097581444616  0.44154053495353185  0.7879750761111102  1.0000
  O   O5        1.0  0.5081101941371017  0.9629070254775345  0.7791372863846292  1.0000
  O   O6        1.0  0.2717933776670293  0.8911489642152944  0.6002587252928285  1.0000
  O   O7        1.0  0.2769061483582114  0.985388023551091  0.09357022668939186  1.0000
  O   O8        1.0  0.335196912924301  0.41243745773332213  0.3445495576939077  1.0000
  O   O9        1.0  0.12318044686905974  0.9337054978114023  0.8183735070424999  1.0000
  O   O10       1.0  0.6350739260862213  0.45273152392396304  0.0030355514410735102  1.0000
  O   O11       1.0  0.3628175805570158  0.225129254506015  0.5604834860225819  1.0000
  O   O12       1.0  0.677890169238968  0.35102278943260884  0.4547909423429507  1.0000
data_image114
_chemical_formula_structural       K4N4O12
_chemical_formula_sum              "K4 N4 O12"
_cell_length_a       5.602235
_cell_length_b       6.405085
_cell_length_c       9.268196
_cell_angle_alpha    90.0
_cell_angle_beta     90.0
_cell_angle_gamma    90.0

_space_group_name_H-M_alt    "P 1"
_space_group_IT_number       1

loop_
  _space_group_symop_operation_xyz
  'x, y, z'

loop_
  _atom_site_type_symbol
  _atom_site_label
  _atom_site_symmetry_multiplicity
  _atom_site_fract_x
  _atom_site_fract_y
  _atom_site_fract_z
  _atom_site_occupancy
  K   K1        1.0  0.9514707798824515  0.2898301387633218  0.7440823108098412  1.0000
  K   K2        1.0  0.9560163965871589  0.47288862124467246  0.17853824154030665  1.0000
  K   K3        1.0  0.751082441193337  0.9193316948234624  0.4874939098533717  1.0000
  K   K4        1.0  0.6683060947053859  0.8984265718702245  0.05258939854042066  1.0000
  N   N1        1.0  0.4785623746066959  0.35603172510939374  0.441865797826985  1.0000
  N   N2        1.0  0.2722478535396501  0.9473242064469892  0.2409970575911904  1.0000
  N   N3        1.0  0.18428044583323963  0.8520569540993905  0.7326930921107094  1.0000
  N   N4        1.0  0.47919516679141005  0.4900111673851802  0.9207753419036726  1.0000
  O   O1        1.0  0.4461716335819528  0.8398020931534123  0.27899209525522406  1.0000
  O   O2        1.0  0.2657847544808507  0.5475123530744797  0.9551918912572506  1.0000
  O   O3        1.0  0.04740439184709862  0.886508928749121  0.2735412323990305  1.0000
  O   O4        1.0  0.5736633164489604  0.5419795736662759  0.8055508419925504  1.0000
  O   O5        1.0  0.3698843563584878  0.930951195379365  0.8190738015477148  1.0000
  O   O6        1.0  0.2414112970417786  0.7502129398648528  0.6270728544300604  1.0000
  O   O7        1.0  0.32712393250589744  0.08527277775299402  0.1420347979573109  1.0000
  O   O8        1.0  0.4440036534464045  0.35135127467036725  0.30923997345574705  1.0000
  O   O9        1.0  0.9760020190066019  0.8709717455744382  0.7913446583086363  1.0000
  O   O10       1.0  0.568922380359171  0.36042002078585567  0.010846784975868762  1.0000
  O   O11       1.0  0.31947009522524245  0.36136062162752086  0.5421418194126305  1.0000
  O   O12       1.0  0.6800512487215655  0.3885207019003245  0.4921697166503044  1.0000
data_image115
_chemical_formula_structural       K4N4O12
_chemical_formula_sum              "K4 N4 O12"
_cell_length_a       5.602235
_cell_length_b       6.405085
_cell_length_c       9.268196
_cell_angle_alpha    90.0
_cell_angle_beta     90.0
_cell_angle_gamma    90.0

_space_group_name_H-M_alt    "P 1"
_space_group_IT_number       1

loop_
  _space_group_symop_operation_xyz
  'x, y, z'

loop_
  _atom_site_type_symbol
  _atom_site_label
  _atom_site_symmetry_multiplicity
  _atom_site_fract_x
  _atom_site_fract_y
  _atom_site_fract_z
  _atom_site_occupancy
  K   K1        1.0  0.009322375534021488  0.454586263582708  0.7222545113436243  1.0000
  K   K2        1.0  0.1684493923587178  0.4492365030319476  0.22866075569292948  1.0000
  K   K3        1.0  0.6859866528282651  0.9191326095489779  0.5397325450030812  1.0000
  K   K4        1.0  0.6236953967057344  0.9040695785318509  0.006659552995256224  1.0000
  N   N1        1.0  0.5057467745500208  0.2822153400373564  0.42714164353248013  1.0000
  N   N2        1.0  0.06791199846514868  0.9034860579091214  0.23254279230719144  1.0000
  N   N3        1.0  0.250934395342554  0.9112212115367783  0.7471747998620175  1.0000
  N   N4        1.0  0.5232956148388752  0.43841076831242537  0.90683649497061  1.0000
  O   O1        1.0  0.26562442796278934  0.9080784453110216  0.28203257432393425  1.0000
  O   O2        1.0  0.30140795195492154  0.408528627575603  0.9382261619826291  1.0000
  O   O3        1.0  0.9198684273444478  0.7773642276666805  0.27881835444260905  1.0000
  O   O4        1.0  0.5854381478468822  0.5843565643166312  0.8204545749561861  1.0000
  O   O5        1.0  0.4212209539695085  0.04364141655009175  0.7650407066422701  1.0000
  O   O6        1.0  0.28372619177382735  0.7598662599026615  0.6794806949893712  1.0000
  O   O7        1.0  0.04159518497592096  0.014842980713270393  0.12503594999380452  1.0000
  O   O8        1.0  0.5562861618287154  0.35023096507821533  0.2984332467826057  1.0000
  O   O9        1.0  0.03230061982228886  0.9441716637094679  0.8126128778903013  1.0000
  O   O10       1.0  0.6609155130154816  0.33536614106784896  0.9981178766696489  1.0000
  O   O11       1.0  0.28691102314521005  0.1984013580983708  0.43620973740246355  1.0000
  O   O12       1.0  0.5709752382888718  0.32470510369456534  0.5465284386497684  1.0000
data_image116
_chemical_formula_structural       K4N4O12
_chemical_formula_sum              "K4 N4 O12"
_cell_length_a       5.602235
_cell_length_b       6.405085
_cell_length_c       9.268196
_cell_angle_alpha    90.0
_cell_angle_beta     90.0
_cell_angle_gamma    90.0

_space_group_name_H-M_alt    "P 1"
_space_group_IT_number       1

loop_
  _space_group_symop_operation_xyz
  'x, y, z'

loop_
  _atom_site_type_symbol
  _atom_site_label
  _atom_site_symmetry_multiplicity
  _atom_site_fract_x
  _atom_site_fract_y
  _atom_site_fract_z
  _atom_site_occupancy
  K   K1        1.0  0.008318658859068906  0.395372072854603  0.7855395911930221  1.0000
  K   K2        1.0  0.09533202412955322  0.4169343351846999  0.20779260426568494  1.0000
  K   K3        1.0  0.7417675250620659  0.9686322546112645  0.5333111695136328  1.0000
  K   K4        1.0  0.5874308636733858  0.9817728169701886  0.01055011559640806  1.0000
  N   N1        1.0  0.472368604962077  0.29876997340946065  0.42579801657091415  1.0000
  N   N2        1.0  0.12607614816973922  0.8708955821708441  0.2201725996262529  1.0000
  N   N3        1.0  0.21167051682975477  0.8880553989697861  0.6915369455315453  1.0000
  N   N4        1.0  0.589016032146715  0.43876253983291236  0.9483139953353368  1.0000
  O   O1        1.0  0.3093984157903895  0.7934399605229533  0.16855557126176746  1.0000
  O   O2        1.0  0.36681894841749707  0.3836582284993329  0.9757393359500954  1.0000
  O   O3        1.0  0.0031817350599561856  0.8087009563182479  0.31865569968724916  1.0000
  O   O4        1.0  0.5585673059492591  0.6002639701293636  0.859960676509105  1.0000
  O   O5        1.0  0.40124442489103845  0.9606889907818544  0.7515926617891439  1.0000
  O   O6        1.0  0.18338023467875944  0.8120089609994299  0.5642808105359086  1.0000
  O   O7        1.0  0.06127824204674526  0.05014796156111534  0.16436148991671917  1.0000
  O   O8        1.0  0.6581704068303352  0.30588778822367324  0.34300477792983325  1.0000
  O   O9        1.0  0.006053349856127146  0.9047981256739809  0.7634836750841382  1.0000
  O   O10       1.0  0.7190062986165076  0.3519895065214903  0.04256661225303204  1.0000
  O   O11       1.0  0.26577609716499934  0.2080278129049424  0.41359495432720367  1.0000
  O   O12       1.0  0.4804545516800186  0.4155836608231783  0.542907960517791  1.0000
data_image117
_chemical_formula_structural       K4N4O12
_chemical_formula_sum              "K4 N4 O12"
_cell_length_a       5.602235
_cell_length_b       6.405085
_cell_length_c       9.268196
_cell_angle_alpha    90.0
_cell_angle_beta     90.0
_cell_angle_gamma    90.0

_space_group_name_H-M_alt    "P 1"
_space_group_IT_number       1

loop_
  _space_group_symop_operation_xyz
  'x, y, z'

loop_
  _atom_site_type_symbol
  _atom_site_label
  _atom_site_symmetry_multiplicity
  _atom_site_fract_x
  _atom_site_fract_y
  _atom_site_fract_z
  _atom_site_occupancy
  K   K1        1.0  0.014206566621702388  0.3900584745627141  0.7435648627648257  1.0000
  K   K2        1.0  0.02792818057220736  0.3838619100172447  0.2447442233288618  1.0000
  K   K3        1.0  0.7517397907661854  0.9737395616911181  0.527077906757482  1.0000
  K   K4        1.0  0.5459096504390235  0.9635846391414497  0.04740618457462853  1.0000
  N   N1        1.0  0.515807513377699  0.3645283191751661  0.5111413933654665  1.0000
  N   N2        1.0  0.07564237587325658  0.8696607405341847  0.17178686577286184  1.0000
  N   N3        1.0  0.21978539607769518  0.9037711822953699  0.6665165887802675  1.0000
  N   N4        1.0  0.6092320032446965  0.43343050409816986  0.9397127874111819  1.0000
  O   O1        1.0  0.2646576349144321  0.7809090873829144  0.19618168772310507  1.0000
  O   O2        1.0  0.39433242469146546  0.37417129482333694  0.9216276049868658  1.0000
  O   O3        1.0  0.8809476317418464  0.7698877986966071  0.19378928821564623  1.0000
  O   O4        1.0  0.651000083378722  0.5994263523248333  0.8842680004092626  1.0000
  O   O5        1.0  0.39878133941306854  0.9864401148370954  0.7047592614095346  1.0000
  O   O6        1.0  0.20442860890618195  0.8046217686491028  0.5443237464534041  1.0000
  O   O7        1.0  0.05877475294917718  0.02591667722384594  0.0910864206107802  1.0000
  O   O8        1.0  0.6536729457065628  0.3660933038865216  0.3909274362902756  1.0000
  O   O9        1.0  0.03124001292645895  0.8761043435512743  0.7435841193686491  1.0000
  O   O10       1.0  0.7259837635972546  0.32836433918036345  0.040876620903219314  1.0000
  O   O11       1.0  0.30875442490550187  0.34328801143696813  0.5215982721127841  1.0000
  O   O12       1.0  0.6498518396670048  0.4050987192192293  0.6142324875475685  1.0000
data_image118
_chemical_formula_structural       K4N4O12
_chemical_formula_sum              "K4 N4 O12"
_cell_length_a       5.602235
_cell_length_b       6.405085
_cell_length_c       9.268196
_cell_angle_alpha    90.0
_cell_angle_beta     90.0
_cell_angle_gamma    90.0

_space_group_name_H-M_alt    "P 1"
_space_group_IT_number       1

loop_
  _space_group_symop_operation_xyz
  'x, y, z'

loop_
  _atom_site_type_symbol
  _atom_site_label
  _atom_site_symmetry_multiplicity
  _atom_site_fract_x
  _atom_site_fract_y
  _atom_site_fract_z
  _atom_site_occupancy
  K   K1        1.0  0.16579259048991868  0.4239829115514234  0.7602506409610148  1.0000
  K   K2        1.0  0.07624312122886101  0.42864284424252524  0.2753828964584688  1.0000
  K   K3        1.0  0.7263168193139535  0.8052223932197452  0.47086142834295625  1.0000
  K   K4        1.0  0.5413830361114915  0.9495715483579209  0.9837975231197535  1.0000
  N   N1        1.0  0.5232102841274706  0.35753908179502425  0.4886665308125197  1.0000
  N   N2        1.0  0.006200352341275628  0.8470746989680176  0.21778560923657353  1.0000
  N   N3        1.0  0.210851580343062  0.9994490726236391  0.6568198293493234  1.0000
  N   N4        1.0  0.5688989118737111  0.4236954130612427  0.966554655864405  1.0000
  O   O1        1.0  0.19778919919154758  0.7684829723487793  0.21620117210207224  1.0000
  O   O2        1.0  0.4207819436658784  0.3046640239882022  0.01758829877861109  1.0000
  O   O3        1.0  0.8087501832751746  0.7482326472557184  0.21407110540249996  1.0000
  O   O4        1.0  0.5037222456421475  0.6074894908261341  0.918000140981883  1.0000
  O   O5        1.0  0.3891339526113288  0.9771541080707751  0.7418842434817996  1.0000
  O   O6        1.0  0.18749163647996703  0.8934894339555667  0.5452384415871052  1.0000
  O   O7        1.0  0.9861687711918438  0.046418532285117386  0.2270459757047738  1.0000
  O   O8        1.0  0.5907319789100126  0.47231522608585397  0.3685742625120007  1.0000
  O   O9        1.0  0.006734593200507201  0.07888264970520002  0.7097857188245079  1.0000
  O   O10       1.0  0.802560675472404  0.3723846821335448  0.9632733998527491  1.0000
  O   O11       1.0  0.34831090124936187  0.24213713817094482  0.4800211654328549  1.0000
  O   O12       1.0  0.6652709872042365  0.3518324652561495  0.5852757725255215  1.0000
data_image119
_chemical_formula_structural       K4N4O12
_chemical_formula_sum              "K4 N4 O12"
_cell_length_a       5.602235
_cell_length_b       6.405085
_cell_length_c       9.268196
_cell_angle_alpha    90.0
_cell_angle_beta     90.0
_cell_angle_gamma    90.0

_space_group_name_H-M_alt    "P 1"
_space_group_IT_number       1

loop_
  _space_group_symop_operation_xyz
  'x, y, z'

loop_
  _atom_site_type_symbol
  _atom_site_label
  _atom_site_symmetry_multiplicity
  _atom_site_fract_x
  _atom_site_fract_y
  _atom_site_fract_z
  _atom_site_occupancy
  K   K1        1.0  0.10246852825267672  0.47823477841352363  0.7246163743989753  1.0000
  K   K2        1.0  0.11751311166591982  0.3436382935610789  0.24492548719309062  1.0000
  K   K3        1.0  0.7517875256390824  0.8081040414125463  0.5189312628379867  1.0000
  K   K4        1.0  0.5559770334078741  0.9835898528699584  0.055520762577673244  1.0000
  N   N1        1.0  0.5632031392541439  0.3650076066365497  0.4412816527095185  1.0000
  N   N2        1.0  0.9735913915796012  0.883942337415997  0.20426831417319224  1.0000
  N   N3        1.0  0.2590457600554365  0.9242638598297233  0.6629974133775087  1.0000
  N   N4        1.0  0.5332400280026588  0.4561824243063955  0.9918145543074808  1.0000
  O   O1        1.0  0.09020455711775568  0.98153672769146  0.09997123799363505  1.0000
  O   O2        1.0  0.4139666071063619  0.4377273921111376  0.11113552253051207  1.0000
  O   O3        1.0  0.9005372583572513  0.6809486498360819  0.1855696040926984  1.0000
  O   O4        1.0  0.518776987582408  0.6227859796783937  0.9274230203219572  1.0000
  O   O5        1.0  0.45396679265859335  0.9782027695299635  0.7376211200517796  1.0000
  O   O6        1.0  0.23377777682145437  0.7728234660713622  0.5641038349020582  1.0000
  O   O7        1.0  0.8322076785877353  0.9833193631790442  0.280319952418423  1.0000
  O   O8        1.0  0.5582879065451971  0.5271200966521606  0.3514451925940304  1.0000
  O   O9        1.0  0.06604116479830224  0.9630189980300033  0.7305844125460869  1.0000
  O   O10       1.0  0.6395684337882419  0.30577224495341226  0.9361513087975106  1.0000
  O   O11       1.0  0.3834670229441093  0.26623599201533693  0.4674050665695001  1.0000
  O   O12       1.0  0.7567616397001495  0.3309844659530715  0.49076805128046147  1.0000
data_image120
_chemical_formula_structural       K4N4O12
_chemical_formula_sum              "K4 N4 O12"
_cell_length_a       5.602235
_cell_length_b       6.405085
_cell_length_c       9.268196
_cell_angle_alpha    90.0
_cell_angle_beta     90.0
_cell_angle_gamma    90.0

_space_group_name_H-M_alt    "P 1"
_space_group_IT_number       1

loop_
  _space_group_symop_operation_xyz
  'x, y, z'

loop_
  _atom_site_type_symbol
  _atom_site_label
  _atom_site_symmetry_multiplicity
  _atom_site_fract_x
  _atom_site_fract_y
  _atom_site_fract_z
  _atom_site_occupancy
  K   K1        1.0  0.08156818461133519  0.3930671250014015  0.7382020445388904  1.0000
  K   K2        1.0  0.10961297168848505  0.23114732679907915  0.30050978642564935  1.0000
  K   K3        1.0  0.7787320167956695  0.8682869418723534  0.5253805775686404  1.0000
  K   K4        1.0  0.36430994181508647  0.8582002572704452  0.040407829037394816  1.0000
  N   N1        1.0  0.5693238494250997  0.41569405989029673  0.45479242760723654  1.0000
  N   N2        1.0  0.9318353673282191  0.9301314844054667  0.16808998630395933  1.0000
  N   N3        1.0  0.24896614208631515  0.9572733153198686  0.6908303976896821  1.0000
  N   N4        1.0  0.6655403104019268  0.49853746011972044  0.9408068460001284  1.0000
  O   O1        1.0  0.9216795933034225  0.009089407549532913  0.04090636416994142  1.0000
  O   O2        1.0  0.4764278215561648  0.5473842572161748  0.9949618970218906  1.0000
  O   O3        1.0  0.053224064106111454  0.7486067297485189  0.2206475044582319  1.0000
  O   O4        1.0  0.7857691202565564  0.6201988462374576  0.860735448149372  1.0000
  O   O5        1.0  0.4491823786144793  0.0156460116499098  0.7472919418284061  1.0000
  O   O6        1.0  0.11984593128403391  0.04217370014554296  0.5747299699791846  1.0000
  O   O7        1.0  0.7384135108773939  0.9692002903335594  0.25172046535133275  1.0000
  O   O8        1.0  0.5092599994934591  0.5367447075719304  0.3584341244833578  1.0000
  O   O9        1.0  0.1635781679951154  0.8035469863666962  0.7496630714593063  1.0000
  O   O10       1.0  0.7603992194481555  0.33592242520633075  0.9671828258602571  1.0000
  O   O11       1.0  0.46374061940430694  0.26041659849956356  0.5109780526190116  1.0000
  O   O12       1.0  0.8023328610139391  0.4527533015670235  0.4955460003629487  1.0000
data_image121
_chemical_formula_structural       K4N4O12
_chemical_formula_sum              "K4 N4 O12"
_cell_length_a       5.602235
_cell_length_b       6.405085
_cell_length_c       9.268196
_cell_angle_alpha    90.0
_cell_angle_beta     90.0
_cell_angle_gamma    90.0

_space_group_name_H-M_alt    "P 1"
_space_group_IT_number       1

loop_
  _space_group_symop_operation_xyz
  'x, y, z'

loop_
  _atom_site_type_symbol
  _atom_site_label
  _atom_site_symmetry_multiplicity
  _atom_site_fract_x
  _atom_site_fract_y
  _atom_site_fract_z
  _atom_site_occupancy
  K   K1        1.0  0.15301178693707707  0.511224206788364  0.7329966551391562  1.0000
  K   K2        1.0  0.24442897524904095  0.1998896996021517  0.29587962697105397  1.0000
  K   K3        1.0  0.6631896977797394  0.8263840768676131  0.582079256887799  1.0000
  K   K4        1.0  0.37087813741731135  0.8951368667000262  0.9867447009341936  1.0000
  N   N1        1.0  0.7084068193601017  0.3835542521916456  0.4573522794932277  1.0000
  N   N2        1.0  0.7839975424152008  0.8833814057382776  0.20800965733434462  1.0000
  N   N3        1.0  0.20003465018422506  0.019364936082814397  0.6862078461370748  1.0000
  N   N4        1.0  0.6436309113456022  0.4186445297373325  0.9140582926755932  1.0000
  O   O1        1.0  0.8139741469591399  0.8639610517047718  0.07762207590403003  1.0000
  O   O2        1.0  0.42448472424267636  0.4230683315747266  0.9658810276485814  1.0000
  O   O3        1.0  0.9726795890769004  0.9602125376170167  0.2847346751959683  1.0000
  O   O4        1.0  0.7162743112978858  0.5908477448351058  0.848054613073773  1.0000
  O   O5        1.0  0.3191581694555016  0.13398122487638442  0.7814948648082698  1.0000
  O   O6        1.0  0.05042994900215194  0.07616552976786399  0.5872674479796905  1.0000
  O   O7        1.0  0.5767070348344345  0.8790283544521911  0.27310534561542976  1.0000
  O   O8        1.0  0.5267142990257241  0.4663346660007462  0.37444556615236363  1.0000
  O   O9        1.0  0.2914601303991945  0.854083330980554  0.6672913190952948  1.0000
  O   O10       1.0  0.781739754899337  0.2664686956530439  0.9264078190718431  1.0000
  O   O11       1.0  0.6781027454286954  0.3087003036934618  0.5902820056807186  1.0000
  O   O12       1.0  0.9257641224427567  0.4026645321821841  0.4037730171915469  1.0000
data_image122
_chemical_formula_structural       K4N4O12
_chemical_formula_sum              "K4 N4 O12"
_cell_length_a       5.602235
_cell_length_b       6.405085
_cell_length_c       9.268196
_cell_angle_alpha    90.0
_cell_angle_beta     90.0
_cell_angle_gamma    90.0

_space_group_name_H-M_alt    "P 1"
_space_group_IT_number       1

loop_
  _space_group_symop_operation_xyz
  'x, y, z'

loop_
  _atom_site_type_symbol
  _atom_site_label
  _atom_site_symmetry_multiplicity
  _atom_site_fract_x
  _atom_site_fract_y
  _atom_site_fract_z
  _atom_site_occupancy
  K   K1        1.0  0.1459101039286832  0.4724145277096124  0.6957725255221194  1.0000
  K   K2        1.0  0.32638627397472275  0.17149032075496481  0.2790862438252387  1.0000
  K   K3        1.0  0.6831911717462644  0.8606990881246637  0.5258967613757393  1.0000
  K   K4        1.0  0.4109298714925609  0.8704527283733223  0.9665416866760488  1.0000
  N   N1        1.0  0.6864922604247417  0.4740520565770638  0.4575423549761615  1.0000
  N   N2        1.0  0.852294745987714  0.8245685913423867  0.19613308002539465  1.0000
  N   N3        1.0  0.1260286634263693  0.022353045003308612  0.6949610912444495  1.0000
  N   N4        1.0  0.579217860808626  0.43268488803225263  0.997996794201534  1.0000
  O   O1        1.0  0.9231595707865116  0.6905377045126044  0.11384013602617116  1.0000
  O   O2        1.0  0.4612993346172545  0.490151552589505  0.10750901614284433  1.0000
  O   O3        1.0  0.9972095460121957  0.9415494879862215  0.2829451663841782  1.0000
  O   O4        1.0  0.6116866132346328  0.5437256649733415  0.8796089241138406  1.0000
  O   O5        1.0  0.2709282833077287  0.13571069418117931  0.772079284400639  1.0000
  O   O6        1.0  0.965090778480609  0.10691861379233282  0.6278937915566362  1.0000
  O   O7        1.0  0.6562220760897239  0.8869775663804855  0.19190653508614597  1.0000
  O   O8        1.0  0.48101257388706237  0.4935172721405825  0.40435738977043834  1.0000
  O   O9        1.0  0.18601124091611312  0.8384296846454121  0.6650664063964071  1.0000
  O   O10       1.0  0.701390887470126  0.271677379936058  0.9848635471778303  1.0000
  O   O11       1.0  0.6884099245271984  0.41474671429589927  0.6048816013228313  1.0000
  O   O12       1.0  0.8815123296747721  0.5100639841677419  0.3925217527937762  1.0000
data_image123
_chemical_formula_structural       K4N4O12
_chemical_formula_sum              "K4 N4 O12"
_cell_length_a       5.602235
_cell_length_b       6.405085
_cell_length_c       9.268196
_cell_angle_alpha    90.0
_cell_angle_beta     90.0
_cell_angle_gamma    90.0

_space_group_name_H-M_alt    "P 1"
_space_group_IT_number       1

loop_
  _space_group_symop_operation_xyz
  'x, y, z'

loop_
  _atom_site_type_symbol
  _atom_site_label
  _atom_site_symmetry_multiplicity
  _atom_site_fract_x
  _atom_site_fract_y
  _atom_site_fract_z
  _atom_site_occupancy
  K   K1        1.0  0.27020892700817867  0.4359581694999682  0.6351205312863148  1.0000
  K   K2        1.0  0.22771354034485913  0.32807930865893314  0.25072239834840326  1.0000
  K   K3        1.0  0.5170748907080196  0.9712349113476128  0.4520353282904348  1.0000
  K   K4        1.0  0.41771605399790046  0.8530540624614723  0.008002844678309362  1.0000
  N   N1        1.0  0.7351256335064021  0.4313570098554863  0.5190235365559026  1.0000
  N   N2        1.0  0.9336313002589192  0.8780408856970361  0.22432059321355435  1.0000
  N   N3        1.0  0.12527427333505065  0.9709995951647844  0.6932130950145864  1.0000
  N   N4        1.0  0.5511895572049639  0.371193663700113  0.9938666994277742  1.0000
  O   O1        1.0  0.9811880025375326  0.7262830966843603  0.12225431234183848  1.0000
  O   O2        1.0  0.6335042846425651  0.4514991814159118  0.10642470618876541  1.0000
  O   O3        1.0  0.07194755092366527  0.9535741397066737  0.3233658287655927  1.0000
  O   O4        1.0  0.5699782990975217  0.4429782969786748  0.8644530893733255  1.0000
  O   O5        1.0  0.2980169153961284  0.04493279284162847  0.7796372027329659  1.0000
  O   O6        1.0  0.15103404468856738  0.039268295006477  0.5650881639441903  1.0000
  O   O7        1.0  0.7258811235472447  0.977380973776284  0.2041617666803519  1.0000
  O   O8        1.0  0.5322951693381632  0.45920930754300504  0.44661317726103916  1.0000
  O   O9        1.0  0.011206601901166494  0.8124230445566882  0.7311177924009444  1.0000
  O   O10       1.0  0.4128277319752991  0.2210505531386708  0.00918844867297602  1.0000
  O   O11       1.0  0.739326683086398  0.27781006442895156  0.6169313006133517  1.0000
  O   O12       1.0  0.9285961509557058  0.48262271739556833  0.4805606781221545  1.0000
data_image124
_chemical_formula_structural       K4N4O12
_chemical_formula_sum              "K4 N4 O12"
_cell_length_a       5.602235
_cell_length_b       6.405085
_cell_length_c       9.268196
_cell_angle_alpha    90.0
_cell_angle_beta     90.0
_cell_angle_gamma    90.0

_space_group_name_H-M_alt    "P 1"
_space_group_IT_number       1

loop_
  _space_group_symop_operation_xyz
  'x, y, z'

loop_
  _atom_site_type_symbol
  _atom_site_label
  _atom_site_symmetry_multiplicity
  _atom_site_fract_x
  _atom_site_fract_y
  _atom_site_fract_z
  _atom_site_occupancy
  K   K1        1.0  0.2849258649979556  0.4607047036286725  0.7169261792348796  1.0000
  K   K2        1.0  0.10960007549061301  0.5137054674006271  0.20577849099806958  1.0000
  K   K3        1.0  0.44474505737436243  0.9429911074927672  0.44862205361156154  1.0000
  K   K4        1.0  0.43999866254649467  0.7895704701502414  0.0404654168887737  1.0000
  N   N1        1.0  0.8134239491890987  0.3263929708992338  0.4982719800734505  1.0000
  N   N2        1.0  0.9336672712640244  0.9652198625589756  0.16373832822213097  1.0000
  N   N3        1.0  0.144469927870437  0.8962334186008665  0.7621920546851497  1.0000
  N   N4        1.0  0.5679048545114858  0.40064262171193377  0.9584830166649304  1.0000
  O   O1        1.0  0.8566111913977574  0.8014107593607712  0.08644119209559098  1.0000
  O   O2        1.0  0.6785349144322341  0.2977385497468524  0.045744322412128086  1.0000
  O   O3        1.0  0.13399050003054927  0.016897014891809503  0.17350967782700244  1.0000
  O   O4        1.0  0.651892521318193  0.5570191870154673  0.8575661672435351  1.0000
  O   O5        1.0  0.37514259644448533  0.879195763046659  0.7452200965627711  1.0000
  O   O6        1.0  0.036841450475128636  0.8833729351903961  0.6392568114719089  1.0000
  O   O7        1.0  0.7719678697454623  0.043882559088913364  0.22133341757188307  1.0000
  O   O8        1.0  0.636594950539932  0.45832107706974534  0.4769923237405074  1.0000
  O   O9        1.0  0.016957413901558305  0.8408669650845373  0.8624299871214511  1.0000
  O   O10       1.0  0.3593539573133866  0.33250350087545816  0.9380336266913841  1.0000
  O   O11       1.0  0.7856912113381332  0.16761821187551196  0.5992332808599735  1.0000
  O   O12       1.0  0.025257159309097776  0.3736246066086924  0.4822006113951605  1.0000
data_image125
_chemical_formula_structural       K4N4O12
_chemical_formula_sum              "K4 N4 O12"
_cell_length_a       5.602235
_cell_length_b       6.405085
_cell_length_c       9.268196
_cell_angle_alpha    90.0
_cell_angle_beta     90.0
_cell_angle_gamma    90.0

_space_group_name_H-M_alt    "P 1"
_space_group_IT_number       1

loop_
  _space_group_symop_operation_xyz
  'x, y, z'

loop_
  _atom_site_type_symbol
  _atom_site_label
  _atom_site_symmetry_multiplicity
  _atom_site_fract_x
  _atom_site_fract_y
  _atom_site_fract_z
  _atom_site_occupancy
  K   K1        1.0  0.11382183481801444  0.3938946772942224  0.689583357778405  1.0000
  K   K2        1.0  0.13882665941444428  0.5067930299854457  0.1774068214395635  1.0000
  K   K3        1.0  0.41162984555605675  0.9836877813228926  0.46040846038963734  1.0000
  K   K4        1.0  0.5521714352235352  0.8331256976934078  0.03616980525015823  1.0000
  N   N1        1.0  0.7164570322584115  0.4089395344525239  0.4669468935300583  1.0000
  N   N2        1.0  0.9115383643260032  0.9976695335218579  0.2608805593266501  1.0000
  N   N3        1.0  0.2331275854972156  0.8800660398634826  0.7551691189632732  1.0000
  N   N4        1.0  0.6141274526318532  0.27118620771966695  0.9253962009679118  1.0000
  O   O1        1.0  0.9222333157115028  0.8285377930345437  0.1961482254011957  1.0000
  O   O2        1.0  0.695570249687194  0.10985232596107956  0.8870889378550779  1.0000
  O   O3        1.0  0.07522675123121017  0.13095689042429237  0.25466895832844294  1.0000
  O   O4        1.0  0.7041492970393994  0.4769738534221462  0.889841766900012  1.0000
  O   O5        1.0  0.43194793612694765  0.7674777681816009  0.754991902414373  1.0000
  O   O6        1.0  0.10561784619764769  0.8231094667259293  0.6343759842208548  1.0000
  O   O7        1.0  0.718460973604711  0.06339364727766417  0.29068015333509845  1.0000
  O   O8        1.0  0.6747808992421158  0.5847412062236074  0.41481369719732175  1.0000
  O   O9        1.0  0.12549635935444872  0.9454866647100628  0.8622892960517394  1.0000
  O   O10       1.0  0.44698499309115514  0.2803049697415768  0.028370352354838407  1.0000
  O   O11       1.0  0.6149204048101178  0.3186018470932331  0.5592829417263634  1.0000
  O   O12       1.0  0.9553377350635577  0.3265526656250874  0.4502504875853347  1.0000
data_image126
_chemical_formula_structural       K4N4O12
_chemical_formula_sum              "K4 N4 O12"
_cell_length_a       5.602235
_cell_length_b       6.405085
_cell_length_c       9.268196
_cell_angle_alpha    90.0
_cell_angle_beta     90.0
_cell_angle_gamma    90.0

_space_group_name_H-M_alt    "P 1"
_space_group_IT_number       1

loop_
  _space_group_symop_operation_xyz
  'x, y, z'

loop_
  _atom_site_type_symbol
  _atom_site_label
  _atom_site_symmetry_multiplicity
  _atom_site_fract_x
  _atom_site_fract_y
  _atom_site_fract_z
  _atom_site_occupancy
  K   K1        1.0  0.08132643553905883  0.41425743187077385  0.7310199709726297  1.0000
  K   K2        1.0  0.20971272235085792  0.4267820159911372  0.151538152369113  1.0000
  K   K3        1.0  0.40924181158564066  0.9362859802607407  0.4845299268128928  1.0000
  K   K4        1.0  0.559989336550168  0.8076853634513294  0.05936009299377498  1.0000
  N   N1        1.0  0.616045782386687  0.45094018276035225  0.41512966849081034  1.0000
  N   N2        1.0  0.9961341718725121  0.9759673293286149  0.22228206786973304  1.0000
  N   N3        1.0  0.23785597228047356  0.8955800876327318  0.791556080661185  1.0000
  N   N4        1.0  0.6388548146282604  0.29487856459707845  0.9399267805274244  1.0000
  O   O1        1.0  0.9843419834775955  0.7780093433850925  0.19676655546694377  1.0000
  O   O2        1.0  0.6891378116860902  0.21704941021510998  0.8208907503651686  1.0000
  O   O3        1.0  0.1915820802156177  0.09751473715903125  0.24874179524100493  1.0000
  O   O4        1.0  0.7795531586828788  0.43826833797221876  0.0021207693837946833  1.0000
  O   O5        1.0  0.3083671142498556  0.7247583363081865  0.7403858457497183  1.0000
  O   O6        1.0  0.09587950642876955  0.0008338507062496656  0.6905920647157288  1.0000
  O   O7        1.0  0.8182994446812264  0.08029948154676969  0.22609834463373057  1.0000
  O   O8        1.0  0.5071526715095507  0.5628157009331114  0.2893596861465876  1.0000
  O   O9        1.0  0.2032081190782955  0.9446884910200364  0.9240963219789256  1.0000
  O   O10       1.0  0.4690381089731641  0.24144179173743086  0.011972661092760063  1.0000
  O   O11       1.0  0.4590630815226208  0.39383191850941685  0.5041840433021193  1.0000
  O   O12       1.0  0.8501346212945471  0.44873151562099245  0.4479743319882125  1.0000
data_image127
_chemical_formula_structural       K4N4O12
_chemical_formula_sum              "K4 N4 O12"
_cell_length_a       5.602235
_cell_length_b       6.405085
_cell_length_c       9.268196
_cell_angle_alpha    90.0
_cell_angle_beta     90.0
_cell_angle_gamma    90.0

_space_group_name_H-M_alt    "P 1"
_space_group_IT_number       1

loop_
  _space_group_symop_operation_xyz
  'x, y, z'

loop_
  _atom_site_type_symbol
  _atom_site_label
  _atom_site_symmetry_multiplicity
  _atom_site_fract_x
  _atom_site_fract_y
  _atom_site_fract_z
  _atom_site_occupancy
  K   K1        1.0  0.17674088124704257  0.3877572565678047  0.6970201395204958  1.0000
  K   K2        1.0  0.02410957466578245  0.3895830214757487  0.20465342242238302  1.0000
  K   K3        1.0  0.49098888670996055  0.9485197939967234  0.46255182733744904  1.0000
  K   K4        1.0  0.6068752865975233  0.9012872132911838  0.0598820985540347  1.0000
  N   N1        1.0  0.5636247356667308  0.5062029623231606  0.3867011210735832  1.0000
  N   N2        1.0  0.06402939230949983  0.9253207921663371  0.2816539023821252  1.0000
  N   N3        1.0  0.1928631538126094  0.887912414598421  0.8157960741519964  1.0000
  N   N4        1.0  0.6277355787552783  0.30929774334721577  0.8801003210326329  1.0000
  O   O1        1.0  0.0028408619073149823  0.7637816302652216  0.2243272289995193  1.0000
  O   O2        1.0  0.6869117900063741  0.31999090158035853  0.7311342659963498  1.0000
  O   O3        1.0  0.25610039745164703  0.03363256670004389  0.26579276401815655  1.0000
  O   O4        1.0  0.7851601548414149  0.3752055943103754  0.9645126876134087  1.0000
  O   O5        1.0  0.40170059611493236  0.8246513901005623  0.7841418179532342  1.0000
  O   O6        1.0  0.047334956327827186  0.9736959300523854  0.7447031838308906  1.0000
  O   O7        1.0  0.9324125776675831  0.9915261806809321  0.3953591228978821  1.0000
  O   O8        1.0  0.46238425703896546  0.6399299640112579  0.28963190209250717  1.0000
  O   O9        1.0  0.11161953248791355  0.8127015789836571  0.9489365209081283  1.0000
  O   O10       1.0  0.4376622900002629  0.22391239437907245  0.911363442164336  1.0000
  O   O11       1.0  0.4126848761228268  0.3416300391723437  0.4045694388944027  1.0000
  O   O12       1.0  0.7631155615365589  0.5158070896755029  0.4491189936500831  1.0000
data_image128
_chemical_formula_structural       K4N4O12
_chemical_formula_sum              "K4 N4 O12"
_cell_length_a       5.602235
_cell_length_b       6.405085
_cell_length_c       9.268196
_cell_angle_alpha    90.0
_cell_angle_beta     90.0
_cell_angle_gamma    90.0

_space_group_name_H-M_alt    "P 1"
_space_group_IT_number       1

loop_
  _space_group_symop_operation_xyz
  'x, y, z'

loop_
  _atom_site_type_symbol
  _atom_site_label
  _atom_site_symmetry_multiplicity
  _atom_site_fract_x
  _atom_site_fract_y
  _atom_site_fract_z
  _atom_site_occupancy
  K   K1        1.0  0.09122125674031856  0.5382365239295723  0.6611203824037803  1.0000
  K   K2        1.0  0.02456084399577496  0.28822033258979085  0.164910820475485  1.0000
  K   K3        1.0  0.641355672792323  0.9548247310046406  0.47582393059997335  1.0000
  K   K4        1.0  0.5882921976497284  0.912300066606276  0.0585709374337946  1.0000
  N   N1        1.0  0.5280091162375619  0.4796759669097622  0.40010920765881886  1.0000
  N   N2        1.0  0.10276317647126841  0.8469978616723693  0.3014692162422472  1.0000
  N   N3        1.0  0.16204899536341502  0.9169723151161763  0.8310460334805081  1.0000
  N   N4        1.0  0.5936679778884668  0.3457155581667122  0.893073776664758  1.0000
  O   O1        1.0  0.978320973904417  0.6946271908461943  0.3153859491778277  1.0000
  O   O2        1.0  0.6691156159672953  0.3777006045889197  0.7536060222023472  1.0000
  O   O3        1.0  0.1732808959456232  0.9011830782411233  0.182897083230664  1.0000
  O   O4        1.0  0.7333508108953084  0.2337647846480239  0.9687053391872503  1.0000
  O   O5        1.0  0.3579099340252513  0.8574022998483131  0.7660390409247485  1.0000
  O   O6        1.0  0.9949011242081006  0.9866735429412393  0.756577549360123  1.0000
  O   O7        1.0  0.16195521574417118  0.9463384995666241  0.4140458625517751  1.0000
  O   O8        1.0  0.5414739365002591  0.5628807426171889  0.27399892248090474  1.0000
  O   O9        1.0  0.13477936531077547  0.8437989724365904  0.9451607182700242  1.0000
  O   O10       1.0  0.4156136260997041  0.4294428828457292  0.9343357822185003  1.0000
  O   O11       1.0  0.47159765550430793  0.2965857069849598  0.40201712769247067  1.0000
  O   O12       1.0  0.6093928416759321  0.5646715845113105  0.503160870336707  1.0000
data_image129
_chemical_formula_structural       K4N4O12
_chemical_formula_sum              "K4 N4 O12"
_cell_length_a       5.602235
_cell_length_b       6.405085
_cell_length_c       9.268196
_cell_angle_alpha    90.0
_cell_angle_beta     90.0
_cell_angle_gamma    90.0

_space_group_name_H-M_alt    "P 1"
_space_group_IT_number       1

loop_
  _space_group_symop_operation_xyz
  'x, y, z'

loop_
  _atom_site_type_symbol
  _atom_site_label
  _atom_site_symmetry_multiplicity
  _atom_site_fract_x
  _atom_site_fract_y
  _atom_site_fract_z
  _atom_site_occupancy
  K   K1        1.0  0.0018125524713445973  0.5314796246596535  0.636066445484704  1.0000
  K   K2        1.0  0.1388656160682875  0.31167378531284184  0.1816480221418212  1.0000
  K   K3        1.0  0.6659009045370754  0.9675550830811154  0.5699775273255604  1.0000
  K   K4        1.0  0.642712273213772  0.7986039795642446  0.040261985182566296  1.0000
  N   N1        1.0  0.6095539964387889  0.48836998464235903  0.36347512047980074  1.0000
  N   N2        1.0  0.18150325158708586  0.7960845325370612  0.3471125965624904  1.0000
  N   N3        1.0  0.07662719378857138  0.901452860895551  0.7936336450559734  1.0000
  N   N4        1.0  0.4706902503408159  0.4207407293497157  0.8636107809560395  1.0000
  O   O1        1.0  0.11324162853781228  0.633060808698489  0.3921490085038035  1.0000
  O   O2        1.0  0.45595491560340773  0.40101924614582934  0.7170486380239296  1.0000
  O   O3        1.0  0.08008199349930928  0.8413494127019087  0.2117650145947314  1.0000
  O   O4        1.0  0.6727667021600092  0.41989284797837406  0.9165877478609392  1.0000
  O   O5        1.0  0.2587756751615723  0.9345438691204551  0.6770771380543833  1.0000
  O   O6        1.0  0.031420281005716165  0.07278883681855755  0.8630003919646272  1.0000
  O   O7        1.0  0.26979350185329465  0.9538120119299702  0.411594758531727  1.0000
  O   O8        1.0  0.5691848668963675  0.5852536199811776  0.24913658532218633  1.0000
  O   O9        1.0  0.05994390463035448  0.7403440797944388  0.8692765404655263  1.0000
  O   O10       1.0  0.30213744800185705  0.44420121823892195  0.9508176765916975  1.0000
  O   O11       1.0  0.5302973354590019  0.30388645227867866  0.3733610717248562  1.0000
  O   O12       1.0  0.6879739828812783  0.5588313784355023  0.4714588565733272  1.0000
data_image130
_chemical_formula_structural       K4N4O12
_chemical_formula_sum              "K4 N4 O12"
_cell_length_a       5.602235
_cell_length_b       6.405085
_cell_length_c       9.268196
_cell_angle_alpha    90.0
_cell_angle_beta     90.0
_cell_angle_gamma    90.0

_space_group_name_H-M_alt    "P 1"
_space_group_IT_number       1

loop_
  _space_group_symop_operation_xyz
  'x, y, z'

loop_
  _atom_site_type_symbol
  _atom_site_label
  _atom_site_symmetry_multiplicity
  _atom_site_fract_x
  _atom_site_fract_y
  _atom_site_fract_z
  _atom_site_occupancy
  K   K1        1.0  0.02338912843146157  0.4365838492634457  0.6470335962657168  1.0000
  K   K2        1.0  0.046998189726985995  0.41966505620787076  0.1323091393791618  1.0000
  K   K3        1.0  0.524498365921048  0.9620876923169625  0.6399166742728939  1.0000
  K   K4        1.0  0.6598570933529728  0.8289888520592161  0.030884642169071608  1.0000
  N   N1        1.0  0.6998322975511558  0.44989855705079057  0.3742212028163849  1.0000
  N   N2        1.0  0.15101354947063161  0.8904967299410806  0.29779490486512694  1.0000
  N   N3        1.0  0.08006000545267489  0.90435483787772  0.813151634392777  1.0000
  N   N4        1.0  0.5476431884959096  0.39549438738845866  0.8399100741965906  1.0000
  O   O1        1.0  0.2774694282654224  0.7296206450581348  0.3452699777583401  1.0000
  O   O2        1.0  0.5184271097660063  0.35821250562545653  0.7045672104208747  1.0000
  O   O3        1.0  0.9808216058257652  0.8309005946889332  0.21826882104291956  1.0000
  O   O4        1.0  0.7542362025847582  0.4585171925544512  0.8995253524603506  1.0000
  O   O5        1.0  0.9819658076388708  0.9451593195465302  0.6936511898956073  1.0000
  O   O6        1.0  0.03270242618036546  0.027461884437713198  0.9242014517210909  1.0000
  O   O7        1.0  0.16142341829561999  0.05956980369098752  0.3572709412302111  1.0000
  O   O8        1.0  0.6694374062438985  0.4649532257172527  0.23975162386368132  1.0000
  O   O9        1.0  0.1482302653080339  0.713136542075345  0.8693968236218134  1.0000
  O   O10       1.0  0.43752669416391954  0.2804523776332658  0.930127922185765  1.0000
  O   O11       1.0  0.7474625712504063  0.29006782519914  0.4545026323688867  1.0000
  O   O12       1.0  0.6794744529392576  0.6134355278142174  0.45031935997644135  1.0000
data_image131
_chemical_formula_structural       K4N4O12
_chemical_formula_sum              "K4 N4 O12"
_cell_length_a       5.602235
_cell_length_b       6.405085
_cell_length_c       9.268196
_cell_angle_alpha    90.0
_cell_angle_beta     90.0
_cell_angle_gamma    90.0

_space_group_name_H-M_alt    "P 1"
_space_group_IT_number       1

loop_
  _space_group_symop_operation_xyz
  'x, y, z'

loop_
  _atom_site_type_symbol
  _atom_site_label
  _atom_site_symmetry_multiplicity
  _atom_site_fract_x
  _atom_site_fract_y
  _atom_site_fract_z
  _atom_site_occupancy
  K   K1        1.0  0.17751228320187673  0.4497506576878501  0.6264068959839528  1.0000
  K   K2        1.0  0.23701651012792335  0.44696461147402233  0.06255503506392572  1.0000
  K   K3        1.0  0.4036213462049354  0.8299321972102505  0.5862197452816172  1.0000
  K   K4        1.0  0.5470852848842973  0.8193368489254366  0.05228911119004387  1.0000
  N   N1        1.0  0.6664909303817752  0.47117906909061885  0.36514545890993627  1.0000
  N   N2        1.0  0.07679999930360433  0.013429251121125363  0.28681485633701365  1.0000
  N   N3        1.0  0.02748380472265155  0.859963551600692  0.9075352116941802  1.0000
  N   N4        1.0  0.6389981114101921  0.32019945686593293  0.8731034245263481  1.0000
  O   O1        1.0  0.16816728429748254  0.8411966414087686  0.32691067042440314  1.0000
  O   O2        1.0  0.6168403070019324  0.33196574816335683  0.71417198804822  1.0000
  O   O3        1.0  0.8363530107193832  0.03495901756122355  0.3054279636098205  1.0000
  O   O4        1.0  0.8312579883502629  0.39896365819510815  0.9322339922204589  1.0000
  O   O5        1.0  0.8700365049037183  0.7515905498249146  0.8521058152227557  1.0000
  O   O6        1.0  0.94543687238045  0.021089810445199614  0.9776366319312724  1.0000
  O   O7        1.0  0.21370373392026543  0.16856664529525456  0.24255726554078705  1.0000
  O   O8        1.0  0.5588403522683901  0.46078291940203286  0.24810234104791906  1.0000
  O   O9        1.0  0.23805460617104374  0.8255214290413534  0.8847772816281486  1.0000
  O   O10       1.0  0.4845656657448103  0.22933848800173892  0.9403316106984593  1.0000
  O   O11       1.0  0.8016541911899311  0.3236848329199798  0.4195972336685808  1.0000
  O   O12       1.0  0.6100753773344342  0.611065211454227  0.44969709386188766  1.0000
data_image132
_chemical_formula_structural       K4N4O12
_chemical_formula_sum              "K4 N4 O12"
_cell_length_a       5.602235
_cell_length_b       6.405085
_cell_length_c       9.268196
_cell_angle_alpha    90.0
_cell_angle_beta     90.0
_cell_angle_gamma    90.0

_space_group_name_H-M_alt    "P 1"
_space_group_IT_number       1

loop_
  _space_group_symop_operation_xyz
  'x, y, z'

loop_
  _atom_site_type_symbol
  _atom_site_label
  _atom_site_symmetry_multiplicity
  _atom_site_fract_x
  _atom_site_fract_y
  _atom_site_fract_z
  _atom_site_occupancy
  K   K1        1.0  0.1424627245951713  0.41786795377538993  0.5915837460097271  1.0000
  K   K2        1.0  0.2507637518561845  0.4368252464651743  0.057564938690909215  1.0000
  K   K3        1.0  0.5852240912042685  0.0392464000684003  0.6317592841507123  1.0000
  K   K4        1.0  0.5254914105705236  0.8619222042537334  0.11489652906016601  1.0000
  N   N1        1.0  0.6294812234901793  0.5557675075765511  0.39781565158376925  1.0000
  N   N2        1.0  0.0031556968028776666  0.9721912719200153  0.28774939461083626  1.0000
  N   N3        1.0  0.9584239974471891  0.731001219310667  0.8600535066824297  1.0000
  N   N4        1.0  0.7188573361169233  0.240939991074405  0.8688969051558649  1.0000
  O   O1        1.0  0.9933456763249217  0.7904846006401209  0.31873856119255994  1.0000
  O   O2        1.0  0.8709775695780255  0.14274369420384808  0.7986376222637834  1.0000
  O   O3        1.0  0.8348648740938589  0.08151890443914289  0.2606061500247112  1.0000
  O   O4        1.0  0.7623865604718956  0.3777704184285267  0.9589537085390027  1.0000
  O   O5        1.0  0.7646020345610514  0.7714473032801529  0.790970597617121  1.0000
  O   O6        1.0  0.016867922659154468  0.8409622537607122  0.9683398315737374  1.0000
  O   O7        1.0  0.22831035358853916  0.05179068013777566  0.2555096819507803  1.0000
  O   O8        1.0  0.5724012028768565  0.4871028957842858  0.2776992760942451  1.0000
  O   O9        1.0  0.1188857086037981  0.6513957937641095  0.767977529158792  1.0000
  O   O10       1.0  0.49266823581772523  0.2596405742042085  0.8202450785066846  1.0000
  O   O11       1.0  0.7258803946110649  0.4280590467341804  0.4938628377896819  1.0000
  O   O12       1.0  0.5419858735565428  0.743279070051593  0.4298163616841537  1.0000
data_image133
_chemical_formula_structural       K4N4O12
_chemical_formula_sum              "K4 N4 O12"
_cell_length_a       5.602235
_cell_length_b       6.405085
_cell_length_c       9.268196
_cell_angle_alpha    90.0
_cell_angle_beta     90.0
_cell_angle_gamma    90.0

_space_group_name_H-M_alt    "P 1"
_space_group_IT_number       1

loop_
  _space_group_symop_operation_xyz
  'x, y, z'

loop_
  _atom_site_type_symbol
  _atom_site_label
  _atom_site_symmetry_multiplicity
  _atom_site_fract_x
  _atom_site_fract_y
  _atom_site_fract_z
  _atom_site_occupancy
  K   K1        1.0  0.08099668253773595  0.5166120757102164  0.4756725088248813  1.0000
  K   K2        1.0  0.1662821055965762  0.37919619955225214  0.08836842252663298  1.0000
  K   K3        1.0  0.7602594232298845  0.0018745322925204366  0.6298469524097514  1.0000
  K   K4        1.0  0.5374147232158399  0.8178682343591319  0.08116825263734406  1.0000
  N   N1        1.0  0.6271012679431047  0.5635192037083482  0.394398326562448  1.0000
  N   N2        1.0  0.03429804504032845  0.02206894046956709  0.29895691282487924  1.0000
  N   N3        1.0  0.9605171872759477  0.6924006748288167  0.8134305407902448  1.0000
  N   N4        1.0  0.7320170779800477  0.24823721529482368  0.9549032705348962  1.0000
  O   O1        1.0  0.9815270143458377  0.817330149364885  0.2842173899669409  1.0000
  O   O2        1.0  0.9172945753825807  0.21063809866027258  0.8853466898301569  1.0000
  O   O3        1.0  0.8624164116770567  0.1353091081139648  0.3275226353919023  1.0000
  O   O4        1.0  0.7251693247493471  0.3281721013280705  0.07230254749928627  1.0000
  O   O5        1.0  0.721278048996551  0.7016178349497411  0.7689560584350167  1.0000
  O   O6        1.0  0.97513107703996  0.6851540883109175  0.9576665398177363  1.0000
  O   O7        1.0  0.2321802643902722  0.07947568395214133  0.26744176185915247  1.0000
  O   O8        1.0  0.4563887445146007  0.5353172841454914  0.2913498498312703  1.0000
  O   O9        1.0  0.08658177609729284  0.7916155755694588  0.7258849425746691  1.0000
  O   O10       1.0  0.5351708085727922  0.21510055976726752  0.8911827527888334  1.0000
  O   O11       1.0  0.6510095987467431  0.43380072479064885  0.500761201418281  1.0000
  O   O12       1.0  0.6410303971796296  0.7665903372147269  0.42198893813190186  1.0000
data_image134
_chemical_formula_structural       K4N4O12
_chemical_formula_sum              "K4 N4 O12"
_cell_length_a       5.602235
_cell_length_b       6.405085
_cell_length_c       9.268196
_cell_angle_alpha    90.0
_cell_angle_beta     90.0
_cell_angle_gamma    90.0

_space_group_name_H-M_alt    "P 1"
_space_group_IT_number       1

loop_
  _space_group_symop_operation_xyz
  'x, y, z'

loop_
  _atom_site_type_symbol
  _atom_site_label
  _atom_site_symmetry_multiplicity
  _atom_site_fract_x
  _atom_site_fract_y
  _atom_site_fract_z
  _atom_site_occupancy
  K   K1        1.0  0.0037496246173978065  0.5538924728543007  0.431322637341118  1.0000
  K   K2        1.0  0.19287608165745196  0.3625465721465566  0.07955028137642595  1.0000
  K   K3        1.0  0.7892011619671251  0.10751942740469689  0.630818856655924  1.0000
  K   K4        1.0  0.6285965014182453  0.8532529743267869  0.09231382650112963  1.0000
  N   N1        1.0  0.4968975998406206  0.4982116613458792  0.40567444091212784  1.0000
  N   N2        1.0  0.11325397293110162  0.9923989810981  0.3085959288470894  1.0000
  N   N3        1.0  0.9508939284218739  0.6651326876862657  0.8045744873219498  1.0000
  N   N4        1.0  0.6831956675700825  0.2666542820475219  0.9632171592539419  1.0000
  O   O1        1.0  0.9645976313222191  0.8527269598949151  0.243625980005028  1.0000
  O   O2        1.0  0.9091491343781235  0.269451787786402  0.9267435274489377  1.0000
  O   O3        1.0  0.05291326090884437  0.08447383388575647  0.4184470631630004  1.0000
  O   O4        1.0  0.6444339259045171  0.32046425345105173  0.09559457417635656  1.0000
  O   O5        1.0  0.8024965770556245  0.6273208046237639  0.7011124821529986  1.0000
  O   O6        1.0  0.9116973132203836  0.7104317037465662  0.950508472152685  1.0000
  O   O7        1.0  0.31039927687844293  0.020376003315256686  0.26272978486799703  1.0000
  O   O8        1.0  0.37464558503493206  0.5222816839722404  0.2942062986063425  1.0000
  O   O9        1.0  0.15738676083942557  0.7473940586692934  0.753518202739969  1.0000
  O   O10       1.0  0.5318264517978306  0.19919829345489515  0.8797034590271131  1.0000
  O   O11       1.0  0.47463437100304096  0.36312850392736457  0.4951915502511635  1.0000
  O   O12       1.0  0.5789003137364203  0.6802138389927107  0.457192269534265  1.0000
data_image135
_chemical_formula_structural       K4N4O12
_chemical_formula_sum              "K4 N4 O12"
_cell_length_a       5.602235
_cell_length_b       6.405085
_cell_length_c       9.268196
_cell_angle_alpha    90.0
_cell_angle_beta     90.0
_cell_angle_gamma    90.0

_space_group_name_H-M_alt    "P 1"
_space_group_IT_number       1

loop_
  _space_group_symop_operation_xyz
  'x, y, z'

loop_
  _atom_site_type_symbol
  _atom_site_label
  _atom_site_symmetry_multiplicity
  _atom_site_fract_x
  _atom_site_fract_y
  _atom_site_fract_z
  _atom_site_occupancy
  K   K1        1.0  0.9217525582623677  0.5493315845603037  0.42313505490829295  1.0000
  K   K2        1.0  0.18610341387653584  0.432777347836642  0.09635005384405701  1.0000
  K   K3        1.0  0.7769166860369862  0.026335199761392092  0.6311791720364059  1.0000
  K   K4        1.0  0.7228674797416574  0.8152558789101544  0.11554876766942912  1.0000
  N   N1        1.0  0.4919531977853055  0.5633888226550646  0.4517281877816686  1.0000
  N   N2        1.0  0.1853423834045199  0.06137236135835633  0.32402072219450173  1.0000
  N   N3        1.0  0.900438741622512  0.6119018261556999  0.7287127448845674  1.0000
  N   N4        1.0  0.7073160604833095  0.25598612162203827  0.9479577565161057  1.0000
  O   O1        1.0  0.07602774845818196  0.8879251723493317  0.25053820962346207  1.0000
  O   O2        1.0  0.8328833996329144  0.11338600384207095  0.922065009919627  1.0000
  O   O3        1.0  0.03950631456727307  0.20805035113028825  0.3530162829197965  1.0000
  O   O4        1.0  0.7726388356097054  0.35531316125310625  0.07971235506558012  1.0000
  O   O5        1.0  0.7717272934069557  0.45333975642992275  0.734585583509019  1.0000
  O   O6        1.0  0.829148017445482  0.751120166486199  0.8234800059686069  1.0000
  O   O7        1.0  0.41748688998220934  0.06532072225337004  0.3256895912682316  1.0000
  O   O8        1.0  0.4518505265387528  0.5438925569858892  0.30669881315268804  1.0000
  O   O9        1.0  0.10907574121697702  0.6244857414903776  0.6762111214384745  1.0000
  O   O10       1.0  0.4965958567533264  0.2861199111809524  0.91200207630264  1.0000
  O   O11       1.0  0.466818799220086  0.41021379602523905  0.5325861962643796  1.0000
  O   O12       1.0  0.42948869147859503  0.7626396163566593  0.5105629967304337  1.0000
data_image136
_chemical_formula_structural       K4N4O12
_chemical_formula_sum              "K4 N4 O12"
_cell_length_a       5.602235
_cell_length_b       6.405085
_cell_length_c       9.268196
_cell_angle_alpha    90.0
_cell_angle_beta     90.0
_cell_angle_gamma    90.0

_space_group_name_H-M_alt    "P 1"
_space_group_IT_number       1

loop_
  _space_group_symop_operation_xyz
  'x, y, z'

loop_
  _atom_site_type_symbol
  _atom_site_label
  _atom_site_symmetry_multiplicity
  _atom_site_fract_x
  _atom_site_fract_y
  _atom_site_fract_z
  _atom_site_occupancy
  K   K1        1.0  0.004792166618782678  0.5592708593988265  0.4420745887383226  1.0000
  K   K2        1.0  0.17161322217690778  0.45905251289594473  0.09048293582086217  1.0000
  K   K3        1.0  0.7843257891575304  0.06337634678969817  0.6417355500145867  1.0000
  K   K4        1.0  0.7926268518172566  0.807127195945381  0.07189699585807596  1.0000
  N   N1        1.0  0.5256905674367042  0.6218005743800474  0.4481830219705602  1.0000
  N   N2        1.0  0.20559872580687233  0.9970682157932965  0.284769749748488  1.0000
  N   N3        1.0  0.7845719386659427  0.5674266507144026  0.7456328721782438  1.0000
  N   N4        1.0  0.6302202724794208  0.25123769933740203  0.9886900841514021  1.0000
  O   O1        1.0  0.22666509853254443  0.8019291794548723  0.246025709086098  1.0000
  O   O2        1.0  0.8582239843023016  0.20511877168734177  0.9677043069591524  1.0000
  O   O3        1.0  0.04374218830437294  0.07662530663316813  0.3786848238004472  1.0000
  O   O4        1.0  0.5812654531509145  0.4249202116572054  0.030714534608621367  1.0000
  O   O5        1.0  0.8153040486703574  0.3779198250722591  0.7306294015355378  1.0000
  O   O6        1.0  0.6231392135070588  0.6317447053673186  0.8290148875132438  1.0000
  O   O7        1.0  0.3197340249952227  0.15117160051806988  0.23211863656428844  1.0000
  O   O8        1.0  0.6222911761013559  0.5720439517812491  0.3371248350802569  1.0000
  O   O9        1.0  0.9759899014477037  0.712463775544687  0.7128494553516005  1.0000
  O   O10       1.0  0.4744318571163235  0.09963313032512926  0.9699402336658112  1.0000
  O   O11       1.0  0.39189224535772293  0.48461635214759335  0.5342974697301256  1.0000
  O   O12       1.0  0.5302405294684381  0.812548586473621  0.49289973983342583  1.0000
data_image137
_chemical_formula_structural       K4N4O12
_chemical_formula_sum              "K4 N4 O12"
_cell_length_a       5.602235
_cell_length_b       6.405085
_cell_length_c       9.268196
_cell_angle_alpha    90.0
_cell_angle_beta     90.0
_cell_angle_gamma    90.0

_space_group_name_H-M_alt    "P 1"
_space_group_IT_number       1

loop_
  _space_group_symop_operation_xyz
  'x, y, z'

loop_
  _atom_site_type_symbol
  _atom_site_label
  _atom_site_symmetry_multiplicity
  _atom_site_fract_x
  _atom_site_fract_y
  _atom_site_fract_z
  _atom_site_occupancy
  K   K1        1.0  0.04781271807183929  0.6036756318039217  0.47180542121182023  1.0000
  K   K2        1.0  0.15351697693807664  0.45328821295163707  0.05790299648234421  1.0000
  K   K3        1.0  0.524261753089808  0.07445978967186861  0.6919990249814525  1.0000
  K   K4        1.0  0.7063849551220747  0.841397085627381  0.09325863930381306  1.0000
  N   N1        1.0  0.6069128020331862  0.46001521605206985  0.4315011840440009  1.0000
  N   N2        1.0  0.227692761828757  0.96867772074474  0.275517107373775  1.0000
  N   N3        1.0  0.8476620841997635  0.72330930041056  0.7529401957738985  1.0000
  N   N4        1.0  0.6596326637947387  0.2454814541170474  0.9827287501724404  1.0000
  O   O1        1.0  0.12181826402393553  0.8205129105559451  0.21646195475593077  1.0000
  O   O2        1.0  0.8629004951249284  0.166615848474787  0.00904859918566159  1.0000
  O   O3        1.0  0.1950717638349076  0.005816937130650235  0.41655189095295064  1.0000
  O   O4        1.0  0.6742494067724021  0.4124646300008912  0.9177203185288143  1.0000
  O   O5        1.0  0.9846881102408289  0.5724677180156628  0.7377426937169644  1.0000
  O   O6        1.0  0.640784451319723  0.7155704238682095  0.6914469572592589  1.0000
  O   O7        1.0  0.34829242037080316  0.12116451874677381  0.23083501399301887  1.0000
  O   O8        1.0  0.7572771988102167  0.37757630437895606  0.3421099239319011  1.0000
  O   O9        1.0  0.890506087365842  0.8520673846202068  0.8498424022567154  1.0000
  O   O10       1.0  0.4897743524554865  0.11148676964261893  0.9447079934095293  1.0000
  O   O11       1.0  0.5665055183838991  0.3751029326566859  0.5510784258899377  1.0000
  O   O12       1.0  0.5413816063815424  0.6484271123591248  0.40716089980831566  1.0000
data_image138
_chemical_formula_structural       K4N4O12
_chemical_formula_sum              "K4 N4 O12"
_cell_length_a       5.602235
_cell_length_b       6.405085
_cell_length_c       9.268196
_cell_angle_alpha    90.0
_cell_angle_beta     90.0
_cell_angle_gamma    90.0

_space_group_name_H-M_alt    "P 1"
_space_group_IT_number       1

loop_
  _space_group_symop_operation_xyz
  'x, y, z'

loop_
  _atom_site_type_symbol
  _atom_site_label
  _atom_site_symmetry_multiplicity
  _atom_site_fract_x
  _atom_site_fract_y
  _atom_site_fract_z
  _atom_site_occupancy
  K   K1        1.0  0.9816753727918017  0.6798292110387608  0.4618611588814704  1.0000
  K   K2        1.0  0.21068292774072583  0.4554845448472033  0.05701718366244815  1.0000
  K   K3        1.0  0.4022376574706259  0.010083168415329524  0.6944610218354216  1.0000
  K   K4        1.0  0.5166955942960432  0.8422599738781102  0.12248734607488565  1.0000
  N   N1        1.0  0.6676229367598744  0.32463481606546823  0.3368943467341251  1.0000
  N   N2        1.0  0.17185785486060565  0.04621885645501678  0.3344531300468272  1.0000
  N   N3        1.0  0.9800711579656616  0.6783290201980485  0.7788631288542729  1.0000
  N   N4        1.0  0.7413816110769484  0.3147305367536862  0.9606433151179851  1.0000
  O   O1        1.0  0.1466109928581684  0.8614065493409891  0.26606305541293795  1.0000
  O   O2        1.0  0.9226502412914444  0.2180715381971644  0.953754036088184  1.0000
  O   O3        1.0  0.05303588445460793  0.05743183552421671  0.4495339623253709  1.0000
  O   O4        1.0  0.740312790661332  0.5014165118778353  0.9985700412000764  1.0000
  O   O5        1.0  0.20656530088680972  0.6798050515892149  0.7618966695870925  1.0000
  O   O6        1.0  0.8109017804186289  0.6241483752951866  0.7014051503389088  1.0000
  O   O7        1.0  0.25948180798432885  0.21550823758323756  0.27536636392502456  1.0000
  O   O8        1.0  0.8723514809922769  0.27286217567168897  0.2732689597182025  1.0000
  O   O9        1.0  0.9236131777261016  0.795335099724876  0.8909856426730334  1.0000
  O   O10       1.0  0.53348001186674  0.2019341258778963  0.9720690757657803  1.0000
  O   O11       1.0  0.6227029622008187  0.24818842080098596  0.45707802464755753  1.0000
  O   O12       1.0  0.5729565152606583  0.4927456390817664  0.2914592931311801  1.0000
data_image139
_chemical_formula_structural       K4N4O12
_chemical_formula_sum              "K4 N4 O12"
_cell_length_a       5.602235
_cell_length_b       6.405085
_cell_length_c       9.268196
_cell_angle_alpha    90.0
_cell_angle_beta     90.0
_cell_angle_gamma    90.0

_space_group_name_H-M_alt    "P 1"
_space_group_IT_number       1

loop_
  _space_group_symop_operation_xyz
  'x, y, z'

loop_
  _atom_site_type_symbol
  _atom_site_label
  _atom_site_symmetry_multiplicity
  _atom_site_fract_x
  _atom_site_fract_y
  _atom_site_fract_z
  _atom_site_occupancy
  K   K1        1.0  0.06586123657847898  0.5440613856505874  0.4479150695961893  1.0000
  K   K2        1.0  0.11326311356483632  0.46370880888816307  0.1129048377680266  1.0000
  K   K3        1.0  0.4596286743999196  0.9875394390629804  0.6972525762747551  1.0000
  K   K4        1.0  0.6389063188516622  0.930070943527578  0.12387305660119674  1.0000
  N   N1        1.0  0.5841738761143969  0.38628112430314576  0.40999859165205965  1.0000
  N   N2        1.0  0.18829096909338322  0.0003737762135382905  0.3160709398999917  1.0000
  N   N3        1.0  0.019232972152141207  0.6766723203106559  0.7655968497283051  1.0000
  N   N4        1.0  0.640245863899775  0.3299664438144992  0.8943221350255028  1.0000
  O   O1        1.0  0.14390069846110187  0.7984533564126158  0.2526006672725747  1.0000
  O   O2        1.0  0.8158126395912273  0.25928234283827506  0.8153288373280664  1.0000
  O   O3        1.0  0.21175069733782448  0.9883673867548038  0.44285849004843425  1.0000
  O   O4        1.0  0.6853411607934201  0.5137925361289699  0.9582687093300812  1.0000
  O   O5        1.0  0.23179065924048986  0.6385387878316948  0.7345448198085419  1.0000
  O   O6        1.0  0.8224192624954543  0.6583423929785625  0.6999268105564445  1.0000
  O   O7        1.0  0.1831303995622643  0.18519189342830522  0.2436556835791721  1.0000
  O   O8        1.0  0.6451532045501787  0.35756162767367966  0.26707591760070476  1.0000
  O   O9        1.0  0.0224549100529741  0.7938683825592148  0.892106340471062  1.0000
  O   O10       1.0  0.45244642792229084  0.2537845300498475  0.9311850535804624  1.0000
  O   O11       1.0  0.5815158367021537  0.2644098722473676  0.5234975600450409  1.0000
  O   O12       1.0  0.5743747195881752  0.5813455783165252  0.43912582461735356  1.0000
data_image140
_chemical_formula_structural       K4N4O12
_chemical_formula_sum              "K4 N4 O12"
_cell_length_a       5.602235
_cell_length_b       6.405085
_cell_length_c       9.268196
_cell_angle_alpha    90.0
_cell_angle_beta     90.0
_cell_angle_gamma    90.0

_space_group_name_H-M_alt    "P 1"
_space_group_IT_number       1

loop_
  _space_group_symop_operation_xyz
  'x, y, z'

loop_
  _atom_site_type_symbol
  _atom_site_label
  _atom_site_symmetry_multiplicity
  _atom_site_fract_x
  _atom_site_fract_y
  _atom_site_fract_z
  _atom_site_occupancy
  K   K1        1.0  0.15941783872846482  0.5128228788352206  0.4788476505078657  1.0000
  K   K2        1.0  0.0685158871924223  0.4121558421708308  0.006458167928289815  1.0000
  K   K3        1.0  0.5412467255359656  0.9466079245304709  0.6186800768940992  1.0000
  K   K4        1.0  0.6255768364837244  0.9195489719765109  0.08017552989772359  1.0000
  N   N1        1.0  0.6858759905122043  0.520736558675231  0.45445549572748484  1.0000
  N   N2        1.0  0.11870241892264638  0.9174324839814044  0.2671616164261339  1.0000
  N   N3        1.0  0.08566537346403068  0.7595559157624211  0.8291016274067883  1.0000
  N   N4        1.0  0.5034111572001794  0.29613246845820157  0.9609882515295723  1.0000
  O   O1        1.0  0.11124202214132048  0.7254231820151122  0.2258363894067692  1.0000
  O   O2        1.0  0.6771827028389357  0.32668876944465697  0.8691199398975618  1.0000
  O   O3        1.0  0.2359073163709193  0.9686609417687194  0.3774994094435673  1.0000
  O   O4        1.0  0.45576658170464834  0.4292487606159078  0.062261336047978025  1.0000
  O   O5        1.0  0.28200306914749573  0.6779370106252818  0.7836029173725316  1.0000
  O   O6        1.0  0.8951643722501452  0.8203382722811015  0.7530417970845298  1.0000
  O   O7        1.0  0.9460597071990428  0.04900763921201068  0.20983335059806696  1.0000
  O   O8        1.0  0.6738805272436308  0.32854691052088225  0.4213806200868583  1.0000
  O   O9        1.0  0.07525791619841868  0.8036794965284532  0.9607256404971847  1.0000
  O   O10       1.0  0.35012517362770557  0.15973065296348268  0.9332757721289788  1.0000
  O   O11       1.0  0.7706788615888647  0.5488968249471157  0.5990334475323555  1.0000
  O   O12       1.0  0.6463578298807576  0.694563359668517  0.37905197513447203  1.0000
data_image141
_chemical_formula_structural       K4N4O12
_chemical_formula_sum              "K4 N4 O12"
_cell_length_a       5.602235
_cell_length_b       6.405085
_cell_length_c       9.268196
_cell_angle_alpha    90.0
_cell_angle_beta     90.0
_cell_angle_gamma    90.0

_space_group_name_H-M_alt    "P 1"
_space_group_IT_number       1

loop_
  _space_group_symop_operation_xyz
  'x, y, z'

loop_
  _atom_site_type_symbol
  _atom_site_label
  _atom_site_symmetry_multiplicity
  _atom_site_fract_x
  _atom_site_fract_y
  _atom_site_fract_z
  _atom_site_occupancy
  K   K1        1.0  0.24794319262623565  0.5305761081644554  0.5448882305290474  1.0000
  K   K2        1.0  0.02112298834787074  0.3910062308863126  0.051544067991864  1.0000
  K   K3        1.0  0.5822665298035841  0.0707695505753394  0.5867535348277992  1.0000
  K   K4        1.0  0.5439621632587432  0.7715633997113169  0.10733468423406523  1.0000
  N   N1        1.0  0.6892753550080485  0.4696788773738376  0.4413038534822278  1.0000
  N   N2        1.0  0.10793943898412646  0.952143910067451  0.29705970598380205  1.0000
  N   N3        1.0  0.0731673472023837  0.8453543366761805  0.7870522748465436  1.0000
  N   N4        1.0  0.5407540498180619  0.23847570063549525  0.9126585437743177  1.0000
  O   O1        1.0  0.028369087456465117  0.7417373349658948  0.27742244559368423  1.0000
  O   O2        1.0  0.6675800639992691  0.3688053254359929  0.8460188336493191  1.0000
  O   O3        1.0  0.24970839485006122  0.020630032596622883  0.395410451122419  1.0000
  O   O4        1.0  0.5602791525828932  0.18765201033918102  0.052279961543293375  1.0000
  O   O5        1.0  0.25936817388612465  0.8047137998718024  0.7211801910319597  1.0000
  O   O6        1.0  0.9476443191060141  0.020349827767932746  0.7425914661063596  1.0000
  O   O7        1.0  0.001064646196129499  0.06833553680376236  0.2086312963092909  1.0000
  O   O8        1.0  0.6114396460322115  0.2979513028722397  0.39103891642314226  1.0000
  O   O9        1.0  0.03526183033350817  0.7789644107167175  0.9032801711918899  1.0000
  O   O10       1.0  0.32705433439210085  0.173925101628184  0.8687809491048077  1.0000
  O   O11       1.0  0.8257838536386553  0.4791702719842463  0.5649922581110646  1.0000
  O   O12       1.0  0.5878521193913498  0.6456693088747725  0.40776402044168164  1.0000
data_image142
_chemical_formula_structural       K4N4O12
_chemical_formula_sum              "K4 N4 O12"
_cell_length_a       5.602235
_cell_length_b       6.405085
_cell_length_c       9.268196
_cell_angle_alpha    90.0
_cell_angle_beta     90.0
_cell_angle_gamma    90.0

_space_group_name_H-M_alt    "P 1"
_space_group_IT_number       1

loop_
  _space_group_symop_operation_xyz
  'x, y, z'

loop_
  _atom_site_type_symbol
  _atom_site_label
  _atom_site_symmetry_multiplicity
  _atom_site_fract_x
  _atom_site_fract_y
  _atom_site_fract_z
  _atom_site_occupancy
  K   K1        1.0  0.16062621393041399  0.4431877833788206  0.6099065279622595  1.0000
  K   K2        1.0  0.09433598052383418  0.43380729618147035  0.11137496430919584  1.0000
  K   K3        1.0  0.45526970152970214  0.030609221552319266  0.5994850400454795  1.0000
  K   K4        1.0  0.6788870946825913  0.8936782020876575  0.04811203645910389  1.0000
  N   N1        1.0  0.629783325709318  0.4996598339434403  0.36739437275585207  1.0000
  N   N2        1.0  0.12948913343060606  0.8979530264293452  0.3263848567257226  1.0000
  N   N3        1.0  0.08429417255989943  0.8014675362274086  0.7891347724939122  1.0000
  N   N4        1.0  0.5260742844429136  0.3152925031915787  0.8983217667081269  1.0000
  O   O1        1.0  0.10859525120457907  0.6933308433071319  0.3216838275778833  1.0000
  O   O2        1.0  0.5915194062894324  0.3392395675273752  0.7648497818845481  1.0000
  O   O3        1.0  0.2299277135765049  0.0038816999618069836  0.41966620876668315  1.0000
  O   O4        1.0  0.6912624486329484  0.2800643786972773  0.9976125903752658  1.0000
  O   O5        1.0  0.30135137454217975  0.7968166611503742  0.7725967611981098  1.0000
  O   O6        1.0  0.9878548834062593  0.9794312977303132  0.777022736858814  1.0000
  O   O7        1.0  0.9753518683872838  0.9820122387937084  0.24592167033358914  1.0000
  O   O8        1.0  0.5950058051231102  0.472837690720276  0.2255779481698013  1.0000
  O   O9        1.0  0.968752519096116  0.6564674384260164  0.8754850900116565  1.0000
  O   O10       1.0  0.3132206462469056  0.22122801422779742  0.9363294489808879  1.0000
  O   O11       1.0  0.6975074800680187  0.36933966471370094  0.4697684455390216  1.0000
  O   O12       1.0  0.6921960313334534  0.6935915816639009  0.4289174396079215  1.0000
data_image143
_chemical_formula_structural       K4N4O12
_chemical_formula_sum              "K4 N4 O12"
_cell_length_a       5.602235
_cell_length_b       6.405085
_cell_length_c       9.268196
_cell_angle_alpha    90.0
_cell_angle_beta     90.0
_cell_angle_gamma    90.0

_space_group_name_H-M_alt    "P 1"
_space_group_IT_number       1

loop_
  _space_group_symop_operation_xyz
  'x, y, z'

loop_
  _atom_site_type_symbol
  _atom_site_label
  _atom_site_symmetry_multiplicity
  _atom_site_fract_x
  _atom_site_fract_y
  _atom_site_fract_z
  _atom_site_occupancy
  K   K1        1.0  0.02053098433016376  0.37591382577864574  0.6777701962726534  1.0000
  K   K2        1.0  0.1513579490355541  0.3637259330193001  0.15338363946821973  1.0000
  K   K3        1.0  0.4657190341905275  0.975053984486752  0.5801470284745074  1.0000
  K   K4        1.0  0.6855619185116762  0.8515455452611478  0.03371884337705744  1.0000
  N   N1        1.0  0.5767822516148168  0.5733703137736358  0.3556039508951466  1.0000
  N   N2        1.0  0.13785620360822565  0.9427421987928217  0.31438865627547674  1.0000
  N   N3        1.0  0.14175623382252162  0.8218474498527876  0.8118389234289937  1.0000
  N   N4        1.0  0.5946387896865317  0.33774897383232466  0.8698511217035244  1.0000
  O   O1        1.0  0.09927512599946318  0.7500014447150357  0.36704558660609243  1.0000
  O   O2        1.0  0.5222399584167536  0.37868899521700444  0.7546620963387989  1.0000
  O   O3        1.0  0.09761108027276108  0.09999744590223747  0.40707114933608524  1.0000
  O   O4        1.0  0.8289203741719668  0.31214644874437075  0.9005070057192445  1.0000
  O   O5        1.0  0.3435212034794465  0.8105011725535446  0.8612552691426525  1.0000
  O   O6        1.0  0.07328767476969572  0.990097001477571  0.7546017334796533  1.0000
  O   O7        1.0  0.07787708832647817  0.9484971106775398  0.17548236835833375  1.0000
  O   O8        1.0  0.659532691532979  0.7282806417880344  0.26775061019015794  1.0000
  O   O9        1.0  0.9843147812075865  0.6801587604323291  0.8172253936904725  1.0000
  O   O10       1.0  0.46154106527755645  0.25259955252358524  0.9619686816614692  1.0000
  O   O11       1.0  0.4916584091153288  0.4060499957032075  0.31011151926226793  1.0000
  O   O12       1.0  0.5997893443025454  0.5640233478158033  0.5013799315105514  1.0000
data_image144
_chemical_formula_structural       K4N4O12
_chemical_formula_sum              "K4 N4 O12"
_cell_length_a       5.602235
_cell_length_b       6.405085
_cell_length_c       9.268196
_cell_angle_alpha    90.0
_cell_angle_beta     90.0
_cell_angle_gamma    90.0

_space_group_name_H-M_alt    "P 1"
_space_group_IT_number       1

loop_
  _space_group_symop_operation_xyz
  'x, y, z'

loop_
  _atom_site_type_symbol
  _atom_site_label
  _atom_site_symmetry_multiplicity
  _atom_site_fract_x
  _atom_site_fract_y
  _atom_site_fract_z
  _atom_site_occupancy
  K   K1        1.0  0.07431010809263383  0.37475860659249427  0.6619619951948786  1.0000
  K   K2        1.0  0.06312575416565891  0.4285154521874409  0.1257154763760852  1.0000
  K   K3        1.0  0.5192048649598866  0.9874922537826263  0.5375481655778092  1.0000
  K   K4        1.0  0.6733542254248892  0.8408569027336631  0.019487690731611274  1.0000
  N   N1        1.0  0.571061982587317  0.5253913176775018  0.39202810739314214  1.0000
  N   N2        1.0  0.08673006041463371  0.9716535292217228  0.33661462286600186  1.0000
  N   N3        1.0  0.11619389048026627  0.8193864841688617  0.8046159676399977  1.0000
  N   N4        1.0  0.6394080763040619  0.2987069433469157  0.8882147479810273  1.0000
  O   O1        1.0  0.1899339872507919  0.7858029352453233  0.3577733803244272  1.0000
  O   O2        1.0  0.5568698861189298  0.37916064772616  0.7880112541887982  1.0000
  O   O3        1.0  0.09797431854402434  0.10301046439907346  0.4410309377830517  1.0000
  O   O4        1.0  0.8990388230513964  0.2838620403526702  0.9057098004730496  1.0000
  O   O5        1.0  0.2685031160130476  0.9741707767717875  0.8177037772364985  1.0000
  O   O6        1.0  0.027142175707143664  0.8028773438938972  0.6764181492422398  1.0000
  O   O7        1.0  0.9359602956721648  0.9786771384301679  0.2418187696774532  1.0000
  O   O8        1.0  0.5943007777826549  0.7075220342800983  0.3241968660878365  1.0000
  O   O9        1.0  0.059999916983302364  0.687911316388593  0.8855720283042819  1.0000
  O   O10       1.0  0.4913873359932639  0.26828681554896805  0.9971997788855919  1.0000
  O   O11       1.0  0.5725118004547501  0.3625582283526132  0.301529642971297  1.0000
  O   O12       1.0  0.562712625885355  0.478436010891006  0.5254791563517451  1.0000
data_image145
_chemical_formula_structural       K4N4O12
_chemical_formula_sum              "K4 N4 O12"
_cell_length_a       5.602235
_cell_length_b       6.405085
_cell_length_c       9.268196
_cell_angle_alpha    90.0
_cell_angle_beta     90.0
_cell_angle_gamma    90.0

_space_group_name_H-M_alt    "P 1"
_space_group_IT_number       1

loop_
  _space_group_symop_operation_xyz
  'x, y, z'

loop_
  _atom_site_type_symbol
  _atom_site_label
  _atom_site_symmetry_multiplicity
  _atom_site_fract_x
  _atom_site_fract_y
  _atom_site_fract_z
  _atom_site_occupancy
  K   K1        1.0  0.1376954574938425  0.2801855854246683  0.59157741949101  1.0000
  K   K2        1.0  0.009895976819983998  0.41696853032582937  0.1630174102108681  1.0000
  K   K3        1.0  0.6229011353543047  0.015284798334960437  0.5284491454562034  1.0000
  K   K4        1.0  0.5491885752374999  0.9461201733941647  0.0653441240426682  1.0000
  N   N1        1.0  0.5977754744674116  0.4969528100149403  0.3940570277283934  1.0000
  N   N2        1.0  0.1221752531497036  0.9512025095706347  0.28613629261272555  1.0000
  N   N3        1.0  0.14114700370909095  0.8313612886593819  0.8487555609525824  1.0000
  N   N4        1.0  0.6195629419078121  0.3485375621702548  0.8713137595493337  1.0000
  O   O1        1.0  0.23682954557071703  0.7865582745026519  0.2358809841420828  1.0000
  O   O2        1.0  0.394567407512288  0.33862812207182613  0.8070475741940175  1.0000
  O   O3        1.0  0.1492021503693709  0.9861811817490387  0.41637508379983146  1.0000
  O   O4        1.0  0.802029822776154  0.26818143499196445  0.8017154699241897  1.0000
  O   O5        1.0  0.3164957129359314  0.8875277295387611  0.7773327899236353  1.0000
  O   O6        1.0  0.9264697181990038  0.8638192538877724  0.8313862711593746  1.0000
  O   O7        1.0  0.9385865140720713  0.011719678072346529  0.22182291068545368  1.0000
  O   O8        1.0  0.6684973746808607  0.6592436385925978  0.35024381429404094  1.0000
  O   O9        1.0  0.17127332523035013  0.7344033748484136  0.9744567552718182  1.0000
  O   O10       1.0  0.5867568301236876  0.3886157188101652  0.0020874323478572705  1.0000
  O   O11       1.0  0.44781304018955825  0.34742840323493296  0.31874878938243834  1.0000
  O   O12       1.0  0.5866162510613911  0.46247649104698973  0.5341976641510296  1.0000
data_image146
_chemical_formula_structural       K4N4O12
_chemical_formula_sum              "K4 N4 O12"
_cell_length_a       5.602235
_cell_length_b       6.405085
_cell_length_c       9.268196
_cell_angle_alpha    90.0
_cell_angle_beta     90.0
_cell_angle_gamma    90.0

_space_group_name_H-M_alt    "P 1"
_space_group_IT_number       1

loop_
  _space_group_symop_operation_xyz
  'x, y, z'

loop_
  _atom_site_type_symbol
  _atom_site_label
  _atom_site_symmetry_multiplicity
  _atom_site_fract_x
  _atom_site_fract_y
  _atom_site_fract_z
  _atom_site_occupancy
  K   K1        1.0  0.16611357194336884  0.2828935333960787  0.6548185259587368  1.0000
  K   K2        1.0  0.09531403875575939  0.48580909977854925  0.07726738605897307  1.0000
  K   K3        1.0  0.596360409608995  0.9076070422847919  0.5567437022383693  1.0000
  K   K4        1.0  0.5125701802712472  0.9668760258193392  0.061787678179213046  1.0000
  N   N1        1.0  0.5518747320773046  0.463653801545542  0.4015992374841843  1.0000
  N   N2        1.0  0.08598550862567718  0.9697379483959192  0.32571198118342104  1.0000
  N   N3        1.0  0.08870926497137249  0.8397132294447859  0.8126051647992022  1.0000
  N   N4        1.0  0.662010068988029  0.36007319502204027  0.8730166610108709  1.0000
  O   O1        1.0  0.19613409788027436  0.8492652266509729  0.2313679156688555  1.0000
  O   O2        1.0  0.5245780881587587  0.220909359142338  0.8749960217647461  1.0000
  O   O3        1.0  0.10472794987728025  0.9061468981333082  0.4538394809663735  1.0000
  O   O4        1.0  0.8237169406747282  0.3694950024979327  0.7935973323888279  1.0000
  O   O5        1.0  0.25202788763402323  0.7509434639475543  0.7579844573497659  1.0000
  O   O6        1.0  0.9568844554391244  0.9169846679766307  0.706587777004124  1.0000
  O   O7        1.0  0.9730768867135038  0.14025975524098322  0.2730384199285585  1.0000
  O   O8        1.0  0.7203153140560025  0.5613242575821363  0.32917061402574854  1.0000
  O   O9        1.0  0.9956485895387407  0.8418533142973166  0.9340875120916884  1.0000
  O   O10       1.0  0.6887120485321778  0.4394983903188913  0.013539489503869387  1.0000
  O   O11       1.0  0.36515966849940135  0.36781000183040036  0.35949274514942703  1.0000
  O   O12       1.0  0.578751164543115  0.400828483395049  0.5267186218493715  1.0000
data_image147
_chemical_formula_structural       K4N4O12
_chemical_formula_sum              "K4 N4 O12"
_cell_length_a       5.602235
_cell_length_b       6.405085
_cell_length_c       9.268196
_cell_angle_alpha    90.0
_cell_angle_beta     90.0
_cell_angle_gamma    90.0

_space_group_name_H-M_alt    "P 1"
_space_group_IT_number       1

loop_
  _space_group_symop_operation_xyz
  'x, y, z'

loop_
  _atom_site_type_symbol
  _atom_site_label
  _atom_site_symmetry_multiplicity
  _atom_site_fract_x
  _atom_site_fract_y
  _atom_site_fract_z
  _atom_site_occupancy
  K   K1        1.0  0.19986536063097748  0.3585337100398335  0.5856563545026758  1.0000
  K   K2        1.0  0.11360588052299025  0.42774256909192754  0.07348229303244497  1.0000
  K   K3        1.0  0.4770334352869363  0.8250084206764058  0.5783061690948857  1.0000
  K   K4        1.0  0.5530453214934832  0.8852830244837255  0.11081326749118992  1.0000
  N   N1        1.0  0.5543485205232882  0.4064867319753198  0.35865504858059327  1.0000
  N   N2        1.0  0.07394901782798612  0.014214853429358687  0.3124014554915602  1.0000
  N   N3        1.0  0.1165171519790532  0.8738006121774122  0.8546601223341268  1.0000
  N   N4        1.0  0.6225505205151385  0.40345837475825624  0.8932800913783312  1.0000
  O   O1        1.0  0.18413231991748075  0.8491237882468161  0.2602415635172852  1.0000
  O   O2        1.0  0.5854303400862486  0.2051194723159738  0.87113300870091  1.0000
  O   O3        1.0  0.06010001996511788  0.03752353638866346  0.44180987686730067  1.0000
  O   O4        1.0  0.8274614848076127  0.4716776574240211  0.8388785804730094  1.0000
  O   O5        1.0  0.27258003066305736  0.7256559525949999  0.833786274286106  1.0000
  O   O6        1.0  0.1391264863951856  0.9959888730775799  0.743619485075914  1.0000
  O   O7        1.0  0.9962653302908555  0.1535821934538517  0.21699550487323327  1.0000
  O   O8        1.0  0.5832588357983532  0.6234279060237776  0.3315529625325304  1.0000
  O   O9        1.0  0.996446862192207  0.9308031482604651  0.963993917015207  1.0000
  O   O10       1.0  0.5320812458434361  0.4717270388200121  0.014843108729132028  1.0000
  O   O11       1.0  0.42492877985744304  0.2878041450194648  0.28711978554222584  1.0000
  O   O12       1.0  0.665189816081346  0.3137031931794446  0.4483013168261692  1.0000
data_image148
_chemical_formula_structural       K4N4O12
_chemical_formula_sum              "K4 N4 O12"
_cell_length_a       5.602235
_cell_length_b       6.405085
_cell_length_c       9.268196
_cell_angle_alpha    90.0
_cell_angle_beta     90.0
_cell_angle_gamma    90.0

_space_group_name_H-M_alt    "P 1"
_space_group_IT_number       1

loop_
  _space_group_symop_operation_xyz
  'x, y, z'

loop_
  _atom_site_type_symbol
  _atom_site_label
  _atom_site_symmetry_multiplicity
  _atom_site_fract_x
  _atom_site_fract_y
  _atom_site_fract_z
  _atom_site_occupancy
  K   K1        1.0  0.19681395918854983  0.39665782726060084  0.606566384865663  1.0000
  K   K2        1.0  0.10119765482119836  0.4567920919789269  0.09884397831507648  1.0000
  K   K3        1.0  0.6091222110384555  0.8993387423828719  0.5239068832195843  1.0000
  K   K4        1.0  0.5518030042316926  0.9882678037622473  0.06442569204332771  1.0000
  N   N1        1.0  0.545638331314584  0.33711505370608696  0.3913733234169068  1.0000
  N   N2        1.0  0.02319489948759546  0.875141908564434  0.33184477135952095  1.0000
  N   N3        1.0  0.07156587986395965  0.9426225106321909  0.8439147289612076  1.0000
  N   N4        1.0  0.7043792387157566  0.3779494681653517  0.860980821615765  1.0000
  O   O1        1.0  0.12430070634097723  0.7950762595428894  0.2083460459197337  1.0000
  O   O2        1.0  0.5194286493400635  0.26757048714208276  0.8162428169683407  1.0000
  O   O3        1.0  0.03167070195215096  0.7735518978077476  0.46144228916578545  1.0000
  O   O4        1.0  0.844106850095321  0.45942906035129516  0.7824252463917597  1.0000
  O   O5        1.0  0.24421744839851267  0.8250311516837303  0.8217987412221194  1.0000
  O   O6        1.0  0.03431914415736435  0.1272792209786404  0.7729517002458522  1.0000
  O   O7        1.0  0.901351648092179  0.03880707183756482  0.3138678029972837  1.0000
  O   O8        1.0  0.5175308251375618  0.5281931936724024  0.39590460248415127  1.0000
  O   O9        1.0  0.9558631911876235  0.9249747651367289  0.9727208618789759  1.0000
  O   O10       1.0  0.6862400811004408  0.42447787518427144  0.008788159770850523  1.0000
  O   O11       1.0  0.4909816035329836  0.1757473200403656  0.3117881461067016  1.0000
  O   O12       1.0  0.6599829632782881  0.2720252105325516  0.5074176526628342  1.0000
data_image149
_chemical_formula_structural       K4N4O12
_chemical_formula_sum              "K4 N4 O12"
_cell_length_a       5.602235
_cell_length_b       6.405085
_cell_length_c       9.268196
_cell_angle_alpha    90.0
_cell_angle_beta     90.0
_cell_angle_gamma    90.0

_space_group_name_H-M_alt    "P 1"
_space_group_IT_number       1

loop_
  _space_group_symop_operation_xyz
  'x, y, z'

loop_
  _atom_site_type_symbol
  _atom_site_label
  _atom_site_symmetry_multiplicity
  _atom_site_fract_x
  _atom_site_fract_y
  _atom_site_fract_z
  _atom_site_occupancy
  K   K1        1.0  0.231663409043527  0.475755152779448  0.6573255402301994  1.0000
  K   K2        1.0  0.17677748136354854  0.43235349953313573  0.04910050918946134  1.0000
  K   K3        1.0  0.663670170597867  0.0020325148533086868  0.6072708217002224  1.0000
  K   K4        1.0  0.4818882667504789  0.9128570098019684  0.09247045758936179  1.0000
  N   N1        1.0  0.5145581061422637  0.38461742950523353  0.37654869768091687  1.0000
  N   N2        1.0  0.023729341026783455  0.7891825088883759  0.3125299539247215  1.0000
  N   N3        1.0  0.11596023978698414  0.9511874208193367  0.79145522498594  1.0000
  N   N4        1.0  0.6314763475431702  0.33847797154595777  0.9075431672541463  1.0000
  O   O1        1.0  0.05256711708756452  0.771310501640096  0.16993533689331786  1.0000
  O   O2        1.0  0.432698739971632  0.2733384081164943  0.8537968255064714  1.0000
  O   O3        1.0  0.016738253723153344  0.6247691704367087  0.39117659110398906  1.0000
  O   O4        1.0  0.743438616758616  0.4719815358505064  0.8324390685964762  1.0000
  O   O5        1.0  0.30790920452404924  0.8248975036696099  0.7501334561411082  1.0000
  O   O6        1.0  0.11600351425644452  0.13914359114199726  0.7428136187517463  1.0000
  O   O7        1.0  0.9525465878927635  0.9921411509189128  0.3362760460318315  1.0000
  O   O8        1.0  0.5087314580314327  0.56374823617627  0.295794122826363  1.0000
  O   O9        1.0  0.9529892230534375  0.8749473471432411  0.8608266328386768  1.0000
  O   O10       1.0  0.6747452664159628  0.31773005485451683  0.03485842737900833  1.0000
  O   O11       1.0  0.44315132996150247  0.2010538235916135  0.3623006469313323  1.0000
  O   O12       1.0  0.6308177895378609  0.41960188342102633  0.5034892999525187  1.0000
data_image150
_chemical_formula_structural       K4N4O12
_chemical_formula_sum              "K4 N4 O12"
_cell_length_a       5.602235
_cell_length_b       6.405085
_cell_length_c       9.268196
_cell_angle_alpha    90.0
_cell_angle_beta     90.0
_cell_angle_gamma    90.0

_space_group_name_H-M_alt    "P 1"
_space_group_IT_number       1

loop_
  _space_group_symop_operation_xyz
  'x, y, z'

loop_
  _atom_site_type_symbol
  _atom_site_label
  _atom_site_symmetry_multiplicity
  _atom_site_fract_x
  _atom_site_fract_y
  _atom_site_fract_z
  _atom_site_occupancy
  K   K1        1.0  0.14306119741736034  0.548603953420728  0.6419743189547881  1.0000
  K   K2        1.0  0.19056410358926956  0.3939540833280676  0.08259431480447897  1.0000
  K   K3        1.0  0.5772659835987355  0.9874280167616698  0.5538310768126975  1.0000
  K   K4        1.0  0.520815045846347  0.8647147876483108  0.14783174027935342  1.0000
  N   N1        1.0  0.5476452800804319  0.446323837987935  0.3612026539305468  1.0000
  N   N2        1.0  0.970225030936576  0.8595685902953749  0.31591543308549097  1.0000
  N   N3        1.0  0.12514780222486613  0.9901747238539661  0.7325088660125699  1.0000
  N   N4        1.0  0.7141952213168967  0.21919939117841145  0.9703937408718952  1.0000
  O   O1        1.0  0.023346079877822633  0.7806732093332049  0.1880659831878313  1.0000
  O   O2        1.0  0.5548213229882122  0.10652697897047712  0.9080195384543475  1.0000
  O   O3        1.0  0.029027875403359524  0.7747370579889141  0.4369791252643236  1.0000
  O   O4        1.0  0.8448658114208552  0.3574827252070847  0.9115076862454309  1.0000
  O   O5        1.0  0.27297983119574637  0.8631800349528704  0.7937942244187568  1.0000
  O   O6        1.0  0.1624702594834828  0.15157880882129754  0.6333462605415717  1.0000
  O   O7        1.0  0.8480648065343629  0.03376399183363987  0.3114243076870631  1.0000
  O   O8        1.0  0.6431577048674374  0.5401054130544998  0.249256230280652  1.0000
  O   O9        1.0  0.9053270061221842  0.9078343974509282  0.742689387058276  1.0000
  O   O10       1.0  0.7790227081536885  0.15034278905240409  0.08727076306525357  1.0000
  O   O11       1.0  0.41163416236904377  0.267119198673141  0.3569324515495034  1.0000
  O   O12       1.0  0.5939089511611774  0.5677937649374779  0.4753968969628491  1.0000
data_image151
_chemical_formula_structural       K4N4O12
_chemical_formula_sum              "K4 N4 O12"
_cell_length_a       5.602235
_cell_length_b       6.405085
_cell_length_c       9.268196
_cell_angle_alpha    90.0
_cell_angle_beta     90.0
_cell_angle_gamma    90.0

_space_group_name_H-M_alt    "P 1"
_space_group_IT_number       1

loop_
  _space_group_symop_operation_xyz
  'x, y, z'

loop_
  _atom_site_type_symbol
  _atom_site_label
  _atom_site_symmetry_multiplicity
  _atom_site_fract_x
  _atom_site_fract_y
  _atom_site_fract_z
  _atom_site_occupancy
  K   K1        1.0  0.9840015508331772  0.4669705927088023  0.6578672279130828  1.0000
  K   K2        1.0  0.06958503894601442  0.48013861011547954  0.17402030741959548  1.0000
  K   K3        1.0  0.5262292304908054  0.9561481066643679  0.5250872649893439  1.0000
  K   K4        1.0  0.6094124194050418  0.9057266924690278  0.11988804703919964  1.0000
  N   N1        1.0  0.49751091648668805  0.39233661457969515  0.3040101749958528  1.0000
  N   N2        1.0  0.09468736272408822  0.8869902771922338  0.3656432548103927  1.0000
  N   N3        1.0  0.10972219183896867  0.9741696372918228  0.7193823341432608  1.0000
  N   N4        1.0  0.8347457738546269  0.258913727630564  0.9405845200880354  1.0000
  O   O1        1.0  0.22551171936374032  0.855904434582117  0.2373037682245136  1.0000
  O   O2        1.0  0.6161322206300168  0.21874221500532148  0.9519019520131856  1.0000
  O   O3        1.0  0.091234984828931  0.7203299801613046  0.4514885526988568  1.0000
  O   O4        1.0  0.9083048391891024  0.4465946547398669  0.9143737039674941  1.0000
  O   O5        1.0  0.21695062424882888  0.8021433788931175  0.7491086059895125  1.0000
  O   O6        1.0  0.21505429478531246  0.1468763106341366  0.683881686873195  1.0000
  O   O7        1.0  0.9416548486344701  0.01816954230807566  0.3683233589245356  1.0000
  O   O8        1.0  0.5484653011629318  0.4695569722101464  0.19355090146933282  1.0000
  O   O9        1.0  0.8738728903628185  0.9739102174298292  0.7439782432185871  1.0000
  O   O10       1.0  0.9345106261261642  0.08658985253857861  0.9748628041351148  1.0000
  O   O11       1.0  0.45471525277409097  0.17751118518741726  0.3303934929461086  1.0000
  O   O12       1.0  0.48249282382800424  0.5519387124099935  0.41530660223052485  1.0000
data_image152
_chemical_formula_structural       K4N4O12
_chemical_formula_sum              "K4 N4 O12"
_cell_length_a       5.602235
_cell_length_b       6.405085
_cell_length_c       9.268196
_cell_angle_alpha    90.0
_cell_angle_beta     90.0
_cell_angle_gamma    90.0

_space_group_name_H-M_alt    "P 1"
_space_group_IT_number       1

loop_
  _space_group_symop_operation_xyz
  'x, y, z'

loop_
  _atom_site_type_symbol
  _atom_site_label
  _atom_site_symmetry_multiplicity
  _atom_site_fract_x
  _atom_site_fract_y
  _atom_site_fract_z
  _atom_site_occupancy
  K   K1        1.0  0.9936641003206081  0.42516329976040396  0.5933754506989072  1.0000
  K   K2        1.0  0.9449590334781788  0.5746254555904204  0.19370570712358395  1.0000
  K   K3        1.0  0.58253127348313  0.8241929994259894  0.5861307918046049  1.0000
  K   K4        1.0  0.5698665126931667  0.8663449133935581  0.01428423673894641  1.0000
  N   N1        1.0  0.5349045307381186  0.4141033228171987  0.3818626421918406  1.0000
  N   N2        1.0  0.027657232468844325  0.8902616661464924  0.33141377246283654  1.0000
  N   N3        1.0  0.18553228656508564  0.9706094604636335  0.7299658246287983  1.0000
  N   N4        1.0  0.8266201777202473  0.27515909472887046  0.9576424919508238  1.0000
  O   O1        1.0  0.18690389681199182  0.9428145601193588  0.22015750461113304  1.0000
  O   O2        1.0  0.6806180153796784  0.2322005860375638  0.8563278649833233  1.0000
  O   O3        1.0  0.05218942064311256  0.740565538376434  0.4212656283236298  1.0000
  O   O4        1.0  0.9735998519138334  0.4431206752153692  0.9114028577852606  1.0000
  O   O5        1.0  0.22215476195110584  0.7782490590996043  0.7933646727778283  1.0000
  O   O6        1.0  0.33743409029931143  0.09937806781039009  0.748603061256172  1.0000
  O   O7        1.0  0.8540607620955132  0.02457120772597743  0.3720658290248384  1.0000
  O   O8        1.0  0.5121344768738156  0.6131934463480653  0.29230816743840105  1.0000
  O   O9        1.0  0.018663293792520748  0.9947345868899248  0.6524471587086962  1.0000
  O   O10       1.0  0.8538088865780464  0.1621184219948768  0.0704066204413275  1.0000
  O   O11       1.0  0.46425502014658054  0.25538018352584074  0.32284766053151526  1.0000
  O   O12       1.0  0.5577969493133942  0.4441826642006405  0.5101580903989023  1.0000
data_image153
_chemical_formula_structural       K4N4O12
_chemical_formula_sum              "K4 N4 O12"
_cell_length_a       5.602235
_cell_length_b       6.405085
_cell_length_c       9.268196
_cell_angle_alpha    90.0
_cell_angle_beta     90.0
_cell_angle_gamma    90.0

_space_group_name_H-M_alt    "P 1"
_space_group_IT_number       1

loop_
  _space_group_symop_operation_xyz
  'x, y, z'

loop_
  _atom_site_type_symbol
  _atom_site_label
  _atom_site_symmetry_multiplicity
  _atom_site_fract_x
  _atom_site_fract_y
  _atom_site_fract_z
  _atom_site_occupancy
  K   K1        1.0  0.03508788563698095  0.3566788234473238  0.6367948518834672  1.0000
  K   K2        1.0  0.02331377232832521  0.6454045624313342  0.16716396583212473  1.0000
  K   K3        1.0  0.5970352243180732  0.7771370198445849  0.5557322788077594  1.0000
  K   K4        1.0  0.5573176797704837  0.8283677521922858  0.98208231163332  1.0000
  N   N1        1.0  0.4101982274716045  0.48129588289670855  0.309440922631888  1.0000
  N   N2        1.0  0.022376034293046358  0.9375095265980558  0.39735216734241807  1.0000
  N   N3        1.0  0.2046020836153548  0.8935302031437615  0.7281084181952955  1.0000
  N   N4        1.0  0.8340599809855762  0.3077959059939474  0.9853758825244174  1.0000
  O   O1        1.0  0.17148180097587343  0.0218035138951036  0.29458146626553705  1.0000
  O   O2        1.0  0.8211559876291032  0.1549065467089797  0.8954347015038554  1.0000
  O   O3        1.0  0.02071968476547654  0.7423895227168157  0.42967433485692363  1.0000
  O   O4        1.0  0.9803982593092577  0.4632226582907759  0.9317772258842059  1.0000
  O   O5        1.0  0.21208181515113342  0.6932146581484162  0.7439137635956276  1.0000
  O   O6        1.0  0.3609577980774956  0.013932840994050486  0.77359024880109  1.0000
  O   O7        1.0  0.8810660164822186  0.06341635448086858  0.44744574730403985  1.0000
  O   O8        1.0  0.48525764518386827  0.6610712784988586  0.3094000324231277  1.0000
  O   O9        1.0  0.02480402700416238  0.9791515585234417  0.6926710405848819  1.0000
  O   O10       1.0  0.7951154066999242  0.30281263840193107  0.12163879170760879  1.0000
  O   O11       1.0  0.33783945087996337  0.3973004833553259  0.18921779960843332  1.0000
  O   O12       1.0  0.4171119746036463  0.37488823209192296  0.4367293368751037  1.0000
data_image154
_chemical_formula_structural       K4N4O12
_chemical_formula_sum              "K4 N4 O12"
_cell_length_a       5.602235
_cell_length_b       6.405085
_cell_length_c       9.268196
_cell_angle_alpha    90.0
_cell_angle_beta     90.0
_cell_angle_gamma    90.0

_space_group_name_H-M_alt    "P 1"
_space_group_IT_number       1

loop_
  _space_group_symop_operation_xyz
  'x, y, z'

loop_
  _atom_site_type_symbol
  _atom_site_label
  _atom_site_symmetry_multiplicity
  _atom_site_fract_x
  _atom_site_fract_y
  _atom_site_fract_z
  _atom_site_occupancy
  K   K1        1.0  0.11684345224289006  0.2757575574369764  0.6528487081927512  1.0000
  K   K2        1.0  0.06252190135024027  0.8306059137160486  0.08577030334439309  1.0000
  K   K3        1.0  0.5549487940868643  0.7366811867101205  0.5210715116962835  1.0000
  K   K4        1.0  0.5646372894642256  0.7776895727196919  0.9948465866280314  1.0000
  N   N1        1.0  0.42825170303221805  0.49452330429549013  0.2777180489839616  1.0000
  N   N2        1.0  0.010836333357518988  0.9668975407136786  0.3870720751219787  1.0000
  N   N3        1.0  0.18255493222097888  0.8469395056526309  0.780582965461213  1.0000
  N   N4        1.0  0.7917370897560811  0.2891777296045009  0.0412813294867557  1.0000
  O   O1        1.0  0.21224508278259824  0.06713379463690194  0.45557378877309174  1.0000
  O   O2        1.0  0.7148308367055978  0.12363659327681702  0.988288351543784  1.0000
  O   O3        1.0  0.028756644385258955  0.7631288967266653  0.3724434483781698  1.0000
  O   O4        1.0  0.7522495507367091  0.4692315668222425  0.989478443081928  1.0000
  O   O5        1.0  0.2870006613130279  0.6777607889270831  0.7310070604524215  1.0000
  O   O6        1.0  0.273910019831191  0.04471458518438031  0.7981793863409515  1.0000
  O   O7        1.0  0.8331882790532041  0.06487092304314834  0.36854692511814724  1.0000
  O   O8        1.0  0.49899438810712005  0.6873144507693744  0.2777642316584386  1.0000
  O   O9        1.0  0.9489331257443163  0.8620184141117626  0.7628361058185353  1.0000
  O   O10       1.0  0.9555709241607915  0.2832645868935549  0.13495333284744715  1.0000
  O   O11       1.0  0.3259483945101005  0.4365562559536743  0.16241154042911088  1.0000
  O   O12       1.0  0.5154095111338682  0.3788605743293208  0.37758954347679585  1.0000
data_image155
_chemical_formula_structural       K4N4O12
_chemical_formula_sum              "K4 N4 O12"
_cell_length_a       5.602235
_cell_length_b       6.405085
_cell_length_c       9.268196
_cell_angle_alpha    90.0
_cell_angle_beta     90.0
_cell_angle_gamma    90.0

_space_group_name_H-M_alt    "P 1"
_space_group_IT_number       1

loop_
  _space_group_symop_operation_xyz
  'x, y, z'

loop_
  _atom_site_type_symbol
  _atom_site_label
  _atom_site_symmetry_multiplicity
  _atom_site_fract_x
  _atom_site_fract_y
  _atom_site_fract_z
  _atom_site_occupancy
  K   K1        1.0  0.06756441233434685  0.24472250403636153  0.6434676236543668  1.0000
  K   K2        1.0  0.9675982126597661  0.9424731210057833  0.0955738499855092  1.0000
  K   K3        1.0  0.5981910183675329  0.7892153352435386  0.6341614829512537  1.0000
  K   K4        1.0  0.5046659331851805  0.80681688418504  0.0024869475214033265  1.0000
  N   N1        1.0  0.44283433782414605  0.5144995840894117  0.2531220869323706  1.0000
  N   N2        1.0  0.053382783194511646  0.8635708655206442  0.4140138968784546  1.0000
  N   N3        1.0  0.09447685922027212  0.7863222630617139  0.763358336734111  1.0000
  N   N4        1.0  0.9269308704111536  0.3414726866601392  0.9526782956510076  1.0000
  O   O1        1.0  0.2244422814721859  0.8794278373260125  0.5092617330500218  1.0000
  O   O2        1.0  0.7324260159636498  0.24033459041888833  0.9414252691465406  1.0000
  O   O3        1.0  0.0429369436698212  0.6782586948614515  0.3551304879953945  1.0000
  O   O4        1.0  0.9119285208256078  0.5274834152882405  0.9288468221617504  1.0000
  O   O5        1.0  0.20704661831861557  0.6164262542936767  0.7438186792103061  1.0000
  O   O6        1.0  0.24603254362394544  0.9234729953217803  0.8250090558829463  1.0000
  O   O7        1.0  0.9074573048295158  0.0038327944712202022  0.39778232783585166  1.0000
  O   O8        1.0  0.5266678554585091  0.7130096436961895  0.27469394246719026  1.0000
  O   O9        1.0  0.9066169546481289  0.8317031514661843  0.7858700395155974  1.0000
  O   O10       1.0  0.14220354686347836  0.27445784844001064  0.9846440898560623  1.0000
  O   O11       1.0  0.3710926241104215  0.48561103002207784  0.12727429332666057  1.0000
  O   O12       1.0  0.4234972176146189  0.3681219388005891  0.34093182848210274  1.0000
data_image156
_chemical_formula_structural       K4N4O12
_chemical_formula_sum              "K4 N4 O12"
_cell_length_a       5.602235
_cell_length_b       6.405085
_cell_length_c       9.268196
_cell_angle_alpha    90.0
_cell_angle_beta     90.0
_cell_angle_gamma    90.0

_space_group_name_H-M_alt    "P 1"
_space_group_IT_number       1

loop_
  _space_group_symop_operation_xyz
  'x, y, z'

loop_
  _atom_site_type_symbol
  _atom_site_label
  _atom_site_symmetry_multiplicity
  _atom_site_fract_x
  _atom_site_fract_y
  _atom_site_fract_z
  _atom_site_occupancy
  K   K1        1.0  0.19917561203381817  0.2642285552518399  0.5812610759413946  1.0000
  K   K2        1.0  0.9458495611311766  0.07345713755061722  0.1763870812514795  1.0000
  K   K3        1.0  0.5658723461549489  0.7502886242098799  0.5574496420674814  1.0000
  K   K4        1.0  0.5023890558228948  0.7900523917387516  0.024854587947717555  1.0000
  N   N1        1.0  0.40270899045116615  0.46619753720329943  0.2624928688392154  1.0000
  N   N2        1.0  0.05399317431692045  0.8079485607580609  0.41747585140979493  1.0000
  N   N3        1.0  0.13083003315617606  0.8078787656303441  0.8143216214173765  1.0000
  N   N4        1.0  0.9026189157243041  0.33033917573835225  0.9383099895174752  1.0000
  O   O1        1.0  0.25505520524574715  0.8712277753721085  0.37916073685401197  1.0000
  O   O2        1.0  0.7353434764940168  0.35634697668430815  0.8418974338014726  1.0000
  O   O3        1.0  0.008045629035158248  0.6240064282146648  0.4062287571239125  1.0000
  O   O4        1.0  0.8341647473059699  0.35757704299154897  0.06623935517647339  1.0000
  O   O5        1.0  0.9711652543882824  0.7590553225241844  0.7067609357821056  1.0000
  O   O6        1.0  0.3628712742570654  0.9006486515523148  0.7897895125877448  1.0000
  O   O7        1.0  0.8926406548312972  0.9326215586253833  0.4316131866425108  1.0000
  O   O8        1.0  0.5256604080180306  0.6384575360254079  0.2754554736760322  1.0000
  O   O9        1.0  0.05225213587525454  0.8588378476750914  0.9396552426133237  1.0000
  O   O10       1.0  0.10393059228542745  0.33134679504193193  0.8945618354432208  1.0000
  O   O11       1.0  0.29632965733724137  0.41964366334023234  0.15803077754827194  1.0000
  O   O12       1.0  0.4462132648019268  0.3432405359362263  0.36901825129978333  1.0000
data_image157
_chemical_formula_structural       K4N4O12
_chemical_formula_sum              "K4 N4 O12"
_cell_length_a       5.602235
_cell_length_b       6.405085
_cell_length_c       9.268196
_cell_angle_alpha    90.0
_cell_angle_beta     90.0
_cell_angle_gamma    90.0

_space_group_name_H-M_alt    "P 1"
_space_group_IT_number       1

loop_
  _space_group_symop_operation_xyz
  'x, y, z'

loop_
  _atom_site_type_symbol
  _atom_site_label
  _atom_site_symmetry_multiplicity
  _atom_site_fract_x
  _atom_site_fract_y
  _atom_site_fract_z
  _atom_site_occupancy
  K   K1        1.0  0.25495865971714227  0.25764509321367013  0.6109205484788582  1.0000
  K   K2        1.0  0.9988895543950955  0.13040697538721568  0.1569996681395191  1.0000
  K   K3        1.0  0.5216120185624904  0.7407263107934763  0.593445373110782  1.0000
  K   K4        1.0  0.5072359755308571  0.7093503186974233  0.97890869877696  1.0000
  N   N1        1.0  0.5340899858459409  0.38204740412644017  0.2622166048569354  1.0000
  N   N2        1.0  0.11799725733033119  0.8562083199160323  0.4359631138675526  1.0000
  N   N3        1.0  0.9730891053077113  0.8681919380679722  0.8360435915262535  1.0000
  N   N4        1.0  0.8281535497999224  0.3975163039682125  0.8726857409278249  1.0000
  O   O1        1.0  0.31897150407839947  0.9247839916886315  0.3995368705427087  1.0000
  O   O2        1.0  0.6970628998882993  0.48377095889202915  0.781561969320056  1.0000
  O   O3        1.0  0.0688628507709754  0.6669564658822801  0.4681203572589452  1.0000
  O   O4        1.0  0.8468885395075667  0.4561042759234643  0.01097720490273668  1.0000
  O   O5        1.0  0.7120089063010682  0.9055072566486585  0.8354265585332437  1.0000
  O   O6        1.0  0.10177893944080872  0.799710063494573  0.7330450432063946  1.0000
  O   O7        1.0  0.9468471937440732  0.9822735663768919  0.45726655186466214  1.0000
  O   O8        1.0  0.6456936723289305  0.5474129406290469  0.28820075027691955  1.0000
  O   O9        1.0  0.05022453536663865  0.8278070836830049  0.9625244038873332  1.0000
  O   O10       1.0  0.9824726705658435  0.24357439712961695  0.8518906961307413  1.0000
  O   O11       1.0  0.38632047987604373  0.3663068234696522  0.156602527896418  1.0000
  O   O12       1.0  0.5913967454003798  0.20652087470563915  0.33324460925803945  1.0000
data_image158
_chemical_formula_structural       K4N4O12
_chemical_formula_sum              "K4 N4 O12"
_cell_length_a       5.602235
_cell_length_b       6.405085
_cell_length_c       9.268196
_cell_angle_alpha    90.0
_cell_angle_beta     90.0
_cell_angle_gamma    90.0

_space_group_name_H-M_alt    "P 1"
_space_group_IT_number       1

loop_
  _space_group_symop_operation_xyz
  'x, y, z'

loop_
  _atom_site_type_symbol
  _atom_site_label
  _atom_site_symmetry_multiplicity
  _atom_site_fract_x
  _atom_site_fract_y
  _atom_site_fract_z
  _atom_site_occupancy
  K   K1        1.0  0.43948195424695835  0.20765299435084356  0.5702176726275692  1.0000
  K   K2        1.0  0.9953873324378818  0.09788915817289823  0.18065534238982922  1.0000
  K   K3        1.0  0.6714080869887131  0.7409511906048555  0.5477422793527661  1.0000
  K   K4        1.0  0.38061483745186986  0.6965069800437569  0.018576797460858163  1.0000
  N   N1        1.0  0.4857778892393147  0.3630220163024985  0.23690251673425286  1.0000
  N   N2        1.0  0.13227372131651083  0.8405586592891265  0.43972459267656183  1.0000
  N   N3        1.0  0.8704072228664411  0.9196640365311964  0.8583038761451546  1.0000
  N   N4        1.0  0.8674182420618772  0.43643426051313333  0.8820268702840759  1.0000
  O   O1        1.0  0.3310907479160945  0.9059152015301558  0.39615777651360684  1.0000
  O   O2        1.0  0.7332517645221965  0.5033862999134473  0.7695626982734574  1.0000
  O   O3        1.0  0.09180264133009125  0.6451530885396165  0.4720778817799349  1.0000
  O   O4        1.0  0.7713760234407827  0.32585642800480574  0.9900198074608033  1.0000
  O   O5        1.0  0.6464566808114343  0.9521047410623161  0.7888656626849136  1.0000
  O   O6        1.0  0.07537220394957497  0.8888164026503724  0.7978753464856116  1.0000
  O   O7        1.0  0.9326093326398759  0.9615542524627426  0.4343071319675871  1.0000
  O   O8        1.0  0.6158980785643092  0.4882212275636767  0.31667935343896125  1.0000
  O   O9        1.0  0.8675410974892819  0.8691644668928789  0.9871453550583742  1.0000
  O   O10       1.0  0.08348977230832233  0.46351579683805727  0.895466019363419  1.0000
  O   O11       1.0  0.2630637282904294  0.41500314191965265  0.21658241326361077  1.0000
  O   O12       1.0  0.5227608636731291  0.1709599226428543  0.2613981901827128  1.0000
data_image159
_chemical_formula_structural       K4N4O12
_chemical_formula_sum              "K4 N4 O12"
_cell_length_a       5.602235
_cell_length_b       6.405085
_cell_length_c       9.268196
_cell_angle_alpha    90.0
_cell_angle_beta     90.0
_cell_angle_gamma    90.0

_space_group_name_H-M_alt    "P 1"
_space_group_IT_number       1

loop_
  _space_group_symop_operation_xyz
  'x, y, z'

loop_
  _atom_site_type_symbol
  _atom_site_label
  _atom_site_symmetry_multiplicity
  _atom_site_fract_x
  _atom_site_fract_y
  _atom_site_fract_z
  _atom_site_occupancy
  K   K1        1.0  0.5790089143342372  0.1338940681703286  0.5693703696535953  1.0000
  K   K2        1.0  0.9840211768369586  0.1858838828788938  0.15547491329878332  1.0000
  K   K3        1.0  0.6007620563249115  0.6473978723727184  0.5447207748382263  1.0000
  K   K4        1.0  0.40367797374414394  0.7515280603910539  0.002237677600910981  1.0000
  N   N1        1.0  0.46033343979272656  0.43460727544349614  0.2470648643512531  1.0000
  N   N2        1.0  0.13645412336344195  0.8065100370926896  0.4627918613306974  1.0000
  N   N3        1.0  0.8614417567674941  0.9372160667725935  0.8718329981410853  1.0000
  N   N4        1.0  0.7831004078433295  0.392195813804799  0.8865401386047846  1.0000
  O   O1        1.0  0.2837632805566961  0.8467048497538487  0.35493652054138414  1.0000
  O   O2        1.0  0.7528374595285465  0.38271659656319634  0.7365208376536856  1.0000
  O   O3        1.0  0.15400500586705998  0.652977157689015  0.5442076423416564  1.0000
  O   O4        1.0  0.6243521928803135  0.35538201125614927  0.986723561898273  1.0000
  O   O5        1.0  0.7037966821106019  0.8514862929662733  0.7883090067768193  1.0000
  O   O6        1.0  0.07767682493766881  0.00083008558356648  0.8094796915156737  1.0000
  O   O7        1.0  0.968851689979022  0.9422135962084899  0.4836026476608628  1.0000
  O   O8        1.0  0.6643389270330624  0.5210479695467157  0.2436358272673993  1.0000
  O   O9        1.0  0.8945810504073302  0.8758307754921125  0.004494812434134854  1.0000
  O   O10       1.0  0.9836079681608447  0.44033512270520503  0.9396920451506504  1.0000
  O   O11       1.0  0.2620693657559022  0.5255566025945095  0.23559986735693828  1.0000
  O   O12       1.0  0.46876946365487193  0.2452572578184438  0.26386628009859536  1.0000
data_image160
_chemical_formula_structural       K4N4O12
_chemical_formula_sum              "K4 N4 O12"
_cell_length_a       5.602235
_cell_length_b       6.405085
_cell_length_c       9.268196
_cell_angle_alpha    90.0
_cell_angle_beta     90.0
_cell_angle_gamma    90.0

_space_group_name_H-M_alt    "P 1"
_space_group_IT_number       1

loop_
  _space_group_symop_operation_xyz
  'x, y, z'

loop_
  _atom_site_type_symbol
  _atom_site_label
  _atom_site_symmetry_multiplicity
  _atom_site_fract_x
  _atom_site_fract_y
  _atom_site_fract_z
  _atom_site_occupancy
  K   K1        1.0  0.5554876866231933  0.14099982072904474  0.6058184140092393  1.0000
  K   K2        1.0  0.020596895323978126  0.1845933469787886  0.20769566749686794  1.0000
  K   K3        1.0  0.5881489766287824  0.6463778034954608  0.5217413138179524  1.0000
  K   K4        1.0  0.3681464277473774  0.6985440358458085  0.9358172221263963  1.0000
  N   N1        1.0  0.5354542800343729  0.4445451935651678  0.25709885277123323  1.0000
  N   N2        1.0  0.06692432130964278  0.841442363323784  0.46041159458397085  1.0000
  N   N3        1.0  0.9108550392377228  0.9147960810849292  0.8718569508971562  1.0000
  N   N4        1.0  0.7771161896902841  0.40838225286794416  0.8935917297198378  1.0000
  O   O1        1.0  0.2751269168453925  0.9047369497651532  0.4390859717329423  1.0000
  O   O2        1.0  0.7722207294626169  0.47856505375087155  0.7498717698505631  1.0000
  O   O3        1.0  0.013095521625721996  0.6966501884031465  0.5465256856028824  1.0000
  O   O4        1.0  0.6320244350306461  0.2574175100432969  0.9251471260588123  1.0000
  O   O5        1.0  0.7380606204597264  0.8685860403811925  0.7816133486012476  1.0000
  O   O6        1.0  0.09885749354438184  0.9658387411835421  0.813120249558365  1.0000
  O   O7        1.0  0.8807483681611732  0.9323708003801844  0.4218764983337653  1.0000
  O   O8        1.0  0.7389487149553071  0.5273752508039506  0.22331813680000148  1.0000
  O   O9        1.0  0.8976089540096269  0.9086497403919989  0.009981432263843182  1.0000
  O   O10       1.0  0.9364789824700224  0.4402723759959826  0.9810402335531112  1.0000
  O   O11       1.0  0.35422450973049774  0.47922182807088115  0.17556230757883465  1.0000
  O   O12       1.0  0.5409026922231663  0.26744328185584  0.31563004968176106  1.0000
data_image161
_chemical_formula_structural       K4N4O12
_chemical_formula_sum              "K4 N4 O12"
_cell_length_a       5.602235
_cell_length_b       6.405085
_cell_length_c       9.268196
_cell_angle_alpha    90.0
_cell_angle_beta     90.0
_cell_angle_gamma    90.0

_space_group_name_H-M_alt    "P 1"
_space_group_IT_number       1

loop_
  _space_group_symop_operation_xyz
  'x, y, z'

loop_
  _atom_site_type_symbol
  _atom_site_label
  _atom_site_symmetry_multiplicity
  _atom_site_fract_x
  _atom_site_fract_y
  _atom_site_fract_z
  _atom_site_occupancy
  K   K1        1.0  0.5942044238905739  0.2724451028926175  0.6138514177450696  1.0000
  K   K2        1.0  0.018869847209715962  0.15095519620337128  0.15806568526466822  1.0000
  K   K3        1.0  0.4470542667673817  0.7360670878888929  0.6009764290013381  1.0000
  K   K4        1.0  0.345354652771966  0.6507765954597085  0.010478020449116165  1.0000
  N   N1        1.0  0.5360436169109825  0.4082317165675331  0.2663870018700035  1.0000
  N   N2        1.0  0.07156300165619872  0.7727657350400228  0.405003150403243  1.0000
  N   N3        1.0  0.8966049862109986  0.8988429561445374  0.8726303089603885  1.0000
  N   N4        1.0  0.8577727848431835  0.4302395271774073  0.8532956880250394  1.0000
  O   O1        1.0  0.2459675921974879  0.8867594110402562  0.3482031872336808  1.0000
  O   O2        1.0  0.86619548481668  0.5716941572480877  0.7524360214872976  1.0000
  O   O3        1.0  0.11276086437604964  0.5895949748701927  0.4556939402856264  1.0000
  O   O4        1.0  0.6576280026446502  0.3529398324279315  0.8900677589562813  1.0000
  O   O5        1.0  0.7011061236649312  0.975960891292135  0.8171361326459172  1.0000
  O   O6        1.0  0.07261811889694444  0.8981338450902294  0.786827552034463  1.0000
  O   O7        1.0  0.879927966820498  0.8638997439093903  0.43231530106909855  1.0000
  O   O8        1.0  0.6972766216722198  0.48540404429095735  0.19621900348109209  1.0000
  O   O9        1.0  0.9020147584032022  0.7905035929806435  0.9917180465064787  1.0000
  O   O10       1.0  0.07408668164256982  0.3399457694309966  0.8910302700672911  1.0000
  O   O11       1.0  0.31411548457568866  0.41790316044004305  0.24824725057539235  1.0000
  O   O12       1.0  0.5973353769863547  0.30169779693991805  0.37373294209138197  1.0000
data_image162
_chemical_formula_structural       K4N4O12
_chemical_formula_sum              "K4 N4 O12"
_cell_length_a       5.602235
_cell_length_b       6.405085
_cell_length_c       9.268196
_cell_angle_alpha    90.0
_cell_angle_beta     90.0
_cell_angle_gamma    90.0

_space_group_name_H-M_alt    "P 1"
_space_group_IT_number       1

loop_
  _space_group_symop_operation_xyz
  'x, y, z'

loop_
  _atom_site_type_symbol
  _atom_site_label
  _atom_site_symmetry_multiplicity
  _atom_site_fract_x
  _atom_site_fract_y
  _atom_site_fract_z
  _atom_site_occupancy
  K   K1        1.0  0.6005931332109231  0.21712662009649342  0.5771192687099309  1.0000
  K   K2        1.0  0.01102427844406706  0.1060674997161366  0.17336659600228962  1.0000
  K   K3        1.0  0.3307068387486283  0.8088443009623951  0.6391329923686326  1.0000
  K   K4        1.0  0.39942727655506083  0.7112927114348558  0.05319908628571035  1.0000
  N   N1        1.0  0.5539108278319079  0.3398495671675465  0.23000677175718576  1.0000
  N   N2        1.0  0.06814986744948476  0.8266269140807386  0.40978242402938614  1.0000
  N   N3        1.0  0.7633017956775862  0.8795578000208225  0.8929493114982174  1.0000
  N   N4        1.0  0.006275242957609173  0.3868125987566133  0.7915703444622246  1.0000
  O   O1        1.0  0.2638250014484072  0.9485804466685556  0.41597478070592864  1.0000
  O   O2        1.0  0.08718758586618014  0.41883115913462005  0.6712866783376743  1.0000
  O   O3        1.0  0.06533876010095382  0.6357648510047477  0.4582753195054954  1.0000
  O   O4        1.0  0.8033367345966036  0.39233515162810145  0.8373557073913344  1.0000
  O   O5        1.0  0.541849260697322  0.9400931513576978  0.8633705435855891  1.0000
  O   O6        1.0  0.8973032622698979  0.027138005241093912  0.8430970065187565  1.0000
  O   O7        1.0  0.870077033720995  0.9162010767728545  0.40501177396538934  1.0000
  O   O8        1.0  0.6168995925242987  0.3612042363646523  0.10290899049167182  1.0000
  O   O9        1.0  0.8533475469604866  0.7702534930622033  0.004282265884125058  1.0000
  O   O10       1.0  0.1925750392311918  0.3784705048082043  0.8921941891228313  1.0000
  O   O11       1.0  0.3526202168058751  0.39082781539558764  0.2921305653459807  1.0000
  O   O12       1.0  0.70451543519716  0.285441870108251  0.3181215645167481  1.0000
data_image163
_chemical_formula_structural       K4N4O12
_chemical_formula_sum              "K4 N4 O12"
_cell_length_a       5.602235
_cell_length_b       6.405085
_cell_length_c       9.268196
_cell_angle_alpha    90.0
_cell_angle_beta     90.0
_cell_angle_gamma    90.0

_space_group_name_H-M_alt    "P 1"
_space_group_IT_number       1

loop_
  _space_group_symop_operation_xyz
  'x, y, z'

loop_
  _atom_site_type_symbol
  _atom_site_label
  _atom_site_symmetry_multiplicity
  _atom_site_fract_x
  _atom_site_fract_y
  _atom_site_fract_z
  _atom_site_occupancy
  K   K1        1.0  0.7095482199871737  0.1583058398214448  0.5807458023897092  1.0000
  K   K2        1.0  0.04915350159989296  0.21664491255321172  0.13887670909425515  1.0000
  K   K3        1.0  0.37191941180849053  0.6917746797922238  0.5980496622561062  1.0000
  K   K4        1.0  0.27568096472344905  0.6999855871244425  0.0754978085142819  1.0000
  N   N1        1.0  0.5374805774012569  0.3295455413277339  0.32696320316683725  1.0000
  N   N2        1.0  0.009431520497677124  0.8690033375703473  0.3731761766171209  1.0000
  N   N3        1.0  0.7261587062329037  0.9488856219234193  0.9172828967224521  1.0000
  N   N4        1.0  0.08255058033016116  0.36129660248330253  0.7695384897233543  1.0000
  O   O1        1.0  0.1787241548095307  0.990813796946967  0.4022941767666721  1.0000
  O   O2        1.0  0.20565089308237594  0.22452151234270173  0.722290206319415  1.0000
  O   O3        1.0  0.057037352937463884  0.6840525316608567  0.3691455602200313  1.0000
  O   O4        1.0  0.9885202910829145  0.5044273230761017  0.6910724035460383  1.0000
  O   O5        1.0  0.505406380799054  0.914045765075609  0.8669060589478409  1.0000
  O   O6        1.0  0.9022857174177591  0.9974303363860364  0.8460810842149398  1.0000
  O   O7        1.0  0.8020488215869794  0.9452093635235903  0.3603508123407797  1.0000
  O   O8        1.0  0.48840148493812696  0.24695855366597635  0.18996101351656308  1.0000
  O   O9        1.0  0.73935383852691  0.9552420710963911  0.060029542580833484  1.0000
  O   O10       1.0  0.11735192888521206  0.3767842904389208  0.9085012707846113  1.0000
  O   O11       1.0  0.39387644017212403  0.3421882620481753  0.4311334777903219  1.0000
  O   O12       1.0  0.744724749183058  0.4080433891082223  0.3224571586301039  1.0000
data_image164
_chemical_formula_structural       K4N4O12
_chemical_formula_sum              "K4 N4 O12"
_cell_length_a       5.602235
_cell_length_b       6.405085
_cell_length_c       9.268196
_cell_angle_alpha    90.0
_cell_angle_beta     90.0
_cell_angle_gamma    90.0

_space_group_name_H-M_alt    "P 1"
_space_group_IT_number       1

loop_
  _space_group_symop_operation_xyz
  'x, y, z'

loop_
  _atom_site_type_symbol
  _atom_site_label
  _atom_site_symmetry_multiplicity
  _atom_site_fract_x
  _atom_site_fract_y
  _atom_site_fract_z
  _atom_site_occupancy
  K   K1        1.0  0.7660940428312697  0.16735659519367352  0.6370534745986558  1.0000
  K   K2        1.0  0.9902115978782159  0.21335375660071842  0.17144344417132143  1.0000
  K   K3        1.0  0.4609648381484649  0.7868914510670081  0.5155929682244412  1.0000
  K   K4        1.0  0.298885031904327  0.6988310247650326  0.07166868061352072  1.0000
  N   N1        1.0  0.5267712573446012  0.44263216433734176  0.3665135812231383  1.0000
  N   N2        1.0  0.9559151706407681  0.8348207012459761  0.37549147979030906  1.0000
  N   N3        1.0  0.7198186073513937  0.8300571628480377  0.8737708603206259  1.0000
  N   N4        1.0  0.09485855062227522  0.33182673592092776  0.7934156675321224  1.0000
  O   O1        1.0  0.03101926672185686  0.023447255821191115  0.42192823723962825  1.0000
  O   O2        1.0  0.24731887851848944  0.21499107320912408  0.7608099434730287  1.0000
  O   O3        1.0  0.12484951459220528  0.6909920943657074  0.3443101202151526  1.0000
  O   O4        1.0  0.037906977892788074  0.46009338064009175  0.6930013893927591  1.0000
  O   O5        1.0  0.6076939674052952  0.6691924220911524  0.8290406451393632  1.0000
  O   O6        1.0  0.8681400179248298  0.9160145013189243  0.8053758855794219  1.0000
  O   O7        1.0  0.768201532085234  0.8482199590082864  0.2966959534156226  1.0000
  O   O8        1.0  0.4120785084767391  0.3998501657834604  0.23006853962216386  1.0000
  O   O9        1.0  0.604215672139468  0.9219652338501805  0.9923814020641388  1.0000
  O   O10       1.0  0.03223605576624333  0.34893670466439036  0.9221209695798397  1.0000
  O   O11       1.0  0.4179293838750401  0.409898674551529  0.48421143357592067  1.0000
  O   O12       1.0  0.7557422361223045  0.5046990620856281  0.3614238915767331  1.0000
data_image165
_chemical_formula_structural       K4N4O12
_chemical_formula_sum              "K4 N4 O12"
_cell_length_a       5.602235
_cell_length_b       6.405085
_cell_length_c       9.268196
_cell_angle_alpha    90.0
_cell_angle_beta     90.0
_cell_angle_gamma    90.0

_space_group_name_H-M_alt    "P 1"
_space_group_IT_number       1

loop_
  _space_group_symop_operation_xyz
  'x, y, z'

loop_
  _atom_site_type_symbol
  _atom_site_label
  _atom_site_symmetry_multiplicity
  _atom_site_fract_x
  _atom_site_fract_y
  _atom_site_fract_z
  _atom_site_occupancy
  K   K1        1.0  0.8042378182627508  0.23868566085432016  0.6574870388940146  1.0000
  K   K2        1.0  0.847645063848694  0.28096696052527403  0.1667594341424739  1.0000
  K   K3        1.0  0.3776712649926697  0.860623732480881  0.5923653837381554  1.0000
  K   K4        1.0  0.21674136837122016  0.674757530621842  0.019624180843346162  1.0000
  N   N1        1.0  0.466917919822767  0.3734437881431965  0.3677867984010659  1.0000
  N   N2        1.0  0.04796928181718258  0.798704369682887  0.3475695787982298  1.0000
  N   N3        1.0  0.7398876585053112  0.8194471191480637  0.8495847459785816  1.0000
  N   N4        1.0  0.2050296374875522  0.3329745751624872  0.8185941605813706  1.0000
  O   O1        1.0  0.01002690211951526  0.9813601939015834  0.4234279980029896  1.0000
  O   O2        1.0  0.3400162728860354  0.20044779577704985  0.7850550935574724  1.0000
  O   O3        1.0  0.11216514260458466  0.6224514965406789  0.3867351889542454  1.0000
  O   O4        1.0  0.2224424090741035  0.5264359127072948  0.7433176282437277  1.0000
  O   O5        1.0  0.6440999913180687  0.6323751699613647  0.8367717984868404  1.0000
  O   O6        1.0  0.9435784073617518  0.8749581653045524  0.7932523212158389  1.0000
  O   O7        1.0  0.014985914217206712  0.8133831070012173  0.20087760132287968  1.0000
  O   O8        1.0  0.4728988291027698  0.45493007561548293  0.22718787191727058  1.0000
  O   O9        1.0  0.586916215296879  0.9570019012687674  0.8766604372137183  1.0000
  O   O10       1.0  0.0951898337847017  0.30685020512787475  0.9402323191225502  1.0000
  O   O11       1.0  0.31416809720939803  0.3898098890224945  0.4531638322401668  1.0000
  O   O12       1.0  0.6652301301910513  0.2849444052292012  0.39956183270233697  1.0000
data_image166
_chemical_formula_structural       K4N4O12
_chemical_formula_sum              "K4 N4 O12"
_cell_length_a       5.602235
_cell_length_b       6.405085
_cell_length_c       9.268196
_cell_angle_alpha    90.0
_cell_angle_beta     90.0
_cell_angle_gamma    90.0

_space_group_name_H-M_alt    "P 1"
_space_group_IT_number       1

loop_
  _space_group_symop_operation_xyz
  'x, y, z'

loop_
  _atom_site_type_symbol
  _atom_site_label
  _atom_site_symmetry_multiplicity
  _atom_site_fract_x
  _atom_site_fract_y
  _atom_site_fract_z
  _atom_site_occupancy
  K   K1        1.0  0.8128251162021569  0.24564865121946358  0.6674672933269854  1.0000
  K   K2        1.0  0.9377221773441768  0.3869430471642139  0.17066188240697197  1.0000
  K   K3        1.0  0.3966513774903315  0.8443787499066631  0.6026558547823673  1.0000
  K   K4        1.0  0.25055738380709014  0.6610475025540927  0.031856412192408756  1.0000
  N   N1        1.0  0.3637286229541979  0.29381579492850174  0.3371429193739231  1.0000
  N   N2        1.0  0.9445129869286253  0.8624476477176463  0.3528307208108423  1.0000
  N   N3        1.0  0.7557263656775723  0.8209915229602583  0.9122221323507728  1.0000
  N   N4        1.0  0.29320515324437446  0.3231242208344552  0.7587309761682784  1.0000
  O   O1        1.0  0.8341860858237452  0.956644678408961  0.45165236922252316  1.0000
  O   O2        1.0  0.41547037219980076  0.17666416416393188  0.7299164226647066  1.0000
  O   O3        1.0  0.9829915430571292  0.6564369134358123  0.3545068150836994  1.0000
  O   O4        1.0  0.34706363822992703  0.49483753617511705  0.6895720690949786  1.0000
  O   O5        1.0  0.7817271394760017  0.6197477437986678  0.9136789290285466  1.0000
  O   O6        1.0  0.8436516885934067  0.9365276832427917  0.7940113284859314  1.0000
  O   O7        1.0  0.02396097055306497  0.98382089796942  0.23960394028907372  1.0000
  O   O8        1.0  0.3948100458172454  0.383994361971839  0.2038428823443867  1.0000
  O   O9        1.0  0.5745350699435602  0.8924255171768369  0.9643445867384469  1.0000
  O   O10       1.0  0.17626308647159794  0.32030922599721867  0.8682087894295825  1.0000
  O   O11       1.0  0.20194601457631708  0.216355856424877  0.40145572138687474  1.0000
  O   O12       1.0  0.5695668237083197  0.23273806385349438  0.38468681439742214  1.0000
data_image167
_chemical_formula_structural       K4N4O12
_chemical_formula_sum              "K4 N4 O12"
_cell_length_a       5.602235
_cell_length_b       6.405085
_cell_length_c       9.268196
_cell_angle_alpha    90.0
_cell_angle_beta     90.0
_cell_angle_gamma    90.0

_space_group_name_H-M_alt    "P 1"
_space_group_IT_number       1

loop_
  _space_group_symop_operation_xyz
  'x, y, z'

loop_
  _atom_site_type_symbol
  _atom_site_label
  _atom_site_symmetry_multiplicity
  _atom_site_fract_x
  _atom_site_fract_y
  _atom_site_fract_z
  _atom_site_occupancy
  K   K1        1.0  0.8264560025062047  0.34030222767994917  0.5883770222849642  1.0000
  K   K2        1.0  0.8385518284837602  0.32043805709830075  0.16887729923706193  1.0000
  K   K3        1.0  0.47524163465210034  0.751020586252355  0.6076398688340996  1.0000
  K   K4        1.0  0.28893653099922356  0.6993096286877833  0.9969974016686052  1.0000
  N   N1        1.0  0.3304107687813062  0.3817144310357983  0.35460911204533513  1.0000
  N   N2        1.0  0.9430213703959202  0.8305066330489718  0.34666453253753393  1.0000
  N   N3        1.0  0.7758387594741634  0.8277158997472501  0.9279707632039985  1.0000
  N   N4        1.0  0.3077032355930931  0.2768984917622343  0.7688164584312772  1.0000
  O   O1        1.0  0.7670706191240524  0.9604876753658637  0.3407732322597141  1.0000
  O   O2        1.0  0.33714707986366443  0.10149137899112862  0.7384593299048705  1.0000
  O   O3        1.0  0.9028011874209948  0.6662196100966802  0.45307431846619095  1.0000
  O   O4        1.0  0.46548031870113826  0.4213238622015755  0.74905368778287  1.0000
  O   O5        1.0  0.7255506444532087  0.6190785856867842  0.9630668665718543  1.0000
  O   O6        1.0  0.8770118520697265  0.8783855832573251  0.8077926170601278  1.0000
  O   O7        1.0  0.1428282452437387  0.8500015079013373  0.2771873516682073  1.0000
  O   O8        1.0  0.4183673924200483  0.36968262327842116  0.2166868580633813  1.0000
  O   O9        1.0  0.681789073665817  0.9730425121161045  0.000774395628225788  1.0000
  O   O10       1.0  0.12619488990849304  0.32901593388788897  0.8506927404521709  1.0000
  O   O11       1.0  0.13335093043541052  0.32241355333396443  0.3871323125824969  1.0000
  O   O12       1.0  0.4907800409445828  0.42629011912965553  0.4476408737890615  1.0000
data_image168
_chemical_formula_structural       K4N4O12
_chemical_formula_sum              "K4 N4 O12"
_cell_length_a       5.602235
_cell_length_b       6.405085
_cell_length_c       9.268196
_cell_angle_alpha    90.0
_cell_angle_beta     90.0
_cell_angle_gamma    90.0

_space_group_name_H-M_alt    "P 1"
_space_group_IT_number       1

loop_
  _space_group_symop_operation_xyz
  'x, y, z'

loop_
  _atom_site_type_symbol
  _atom_site_label
  _atom_site_symmetry_multiplicity
  _atom_site_fract_x
  _atom_site_fract_y
  _atom_site_fract_z
  _atom_site_occupancy
  K   K1        1.0  0.8591952797661335  0.2808039080396693  0.6318838352875017  1.0000
  K   K2        1.0  0.8321863856597416  0.1253784880757305  0.10905050678861498  1.0000
  K   K3        1.0  0.4284301198116739  0.8722734183004736  0.6147898609014643  1.0000
  K   K4        1.0  0.39672649512645686  0.7247812306310242  0.9911374277332784  1.0000
  N   N1        1.0  0.17489046582365772  0.3904584190079446  0.3641602619022692  1.0000
  N   N2        1.0  0.9964193577929465  0.781961506401116  0.35812235526447056  1.0000
  N   N3        1.0  0.8229643004782334  0.8359527752803438  0.844324439623549  1.0000
  N   N4        1.0  0.31599841310509413  0.33912454927712093  0.8350833162784569  1.0000
  O   O1        1.0  0.8462182218289638  0.6320442531950633  0.3451778331759525  1.0000
  O   O2        1.0  0.2621142100603904  0.1972083486811591  0.7663098820209839  1.0000
  O   O3        1.0  0.015059396760653527  0.8666939207545158  0.49309361212646685  1.0000
  O   O4        1.0  0.4187654662030398  0.5053663333583444  0.792953539181182  1.0000
  O   O5        1.0  0.8393470524951485  0.7330432478381894  0.9774855152854055  1.0000
  O   O6        1.0  0.9656471863396437  0.8465848736598792  0.7621472329907856  1.0000
  O   O7        1.0  0.07283429509037179  0.8788051747272959  0.245385787394524  1.0000
  O   O8        1.0  0.21868717582165584  0.501718010741537  0.2529792689245753  1.0000
  O   O9        1.0  0.655129725354178  0.9719361240050067  0.8327996514617751  1.0000
  O   O10       1.0  0.2038700466748833  0.3407727666680531  0.9668373227650944  1.0000
  O   O11       1.0  0.0771436870463622  0.22411906572236667  0.3745798870908402  1.0000
  O   O12       1.0  0.326147903777573  0.45592014424101035  0.4566730457758862  1.0000
data_image169
_chemical_formula_structural       K4N4O12
_chemical_formula_sum              "K4 N4 O12"
_cell_length_a       5.602235
_cell_length_b       6.405085
_cell_length_c       9.268196
_cell_angle_alpha    90.0
_cell_angle_beta     90.0
_cell_angle_gamma    90.0

_space_group_name_H-M_alt    "P 1"
_space_group_IT_number       1

loop_
  _space_group_symop_operation_xyz
  'x, y, z'

loop_
  _atom_site_type_symbol
  _atom_site_label
  _atom_site_symmetry_multiplicity
  _atom_site_fract_x
  _atom_site_fract_y
  _atom_site_fract_z
  _atom_site_occupancy
  K   K1        1.0  0.7452739863677551  0.2850994963719217  0.6397682874417426  1.0000
  K   K2        1.0  0.726256546405715  0.2463326402866408  0.11401595964180233  1.0000
  K   K3        1.0  0.45287890956144594  0.8555606198424752  0.5694054092016532  1.0000
  K   K4        1.0  0.32343997290693016  0.7225219686273632  0.09236971599948052  1.0000
  N   N1        1.0  0.3385141220181323  0.3018812266596099  0.3640186781109136  1.0000
  N   N2        1.0  0.8718227732396391  0.9075686882554704  0.34788918273437464  1.0000
  N   N3        1.0  0.9156732180081955  0.7913989661392222  0.8673972578179542  1.0000
  N   N4        1.0  0.3514634082476902  0.35010791685579495  0.7997558914266758  1.0000
  O   O1        1.0  0.6915534886164751  0.7814919168847722  0.30460865766512746  1.0000
  O   O2        1.0  0.2961992225990562  0.17947053132393215  0.7341007122065863  1.0000
  O   O3        1.0  0.868595487501245  0.9672432488541549  0.47570793647008025  1.0000
  O   O4        1.0  0.4862695953225771  0.5095050768314568  0.7561313669105556  1.0000
  O   O5        1.0  0.8853933773899643  0.7756670103622207  0.0035724909940884064  1.0000
  O   O6        1.0  0.011295149877678962  0.6275664745601472  0.7999138732963915  1.0000
  O   O7        1.0  0.027252728562548813  0.9078444007055464  0.2556420352023523  1.0000
  O   O8        1.0  0.4410488304657959  0.3500656456532441  0.23520542115261892  1.0000
  O   O9        1.0  0.7713806624544857  0.9380830688783635  0.7918111548985762  1.0000
  O   O10       1.0  0.3483109534171249  0.3172612418260722  0.9270150452405322  1.0000
  O   O11       1.0  0.11188553520306015  0.3316324867877524  0.39543739199465716  1.0000
  O   O12       1.0  0.46767541194342827  0.20920223673337116  0.4413534640588576  1.0000
data_image170
_chemical_formula_structural       K4N4O12
_chemical_formula_sum              "K4 N4 O12"
_cell_length_a       5.602235
_cell_length_b       6.405085
_cell_length_c       9.268196
_cell_angle_alpha    90.0
_cell_angle_beta     90.0
_cell_angle_gamma    90.0

_space_group_name_H-M_alt    "P 1"
_space_group_IT_number       1

loop_
  _space_group_symop_operation_xyz
  'x, y, z'

loop_
  _atom_site_type_symbol
  _atom_site_label
  _atom_site_symmetry_multiplicity
  _atom_site_fract_x
  _atom_site_fract_y
  _atom_site_fract_z
  _atom_site_occupancy
  K   K1        1.0  0.8495176350618414  0.26537754851695633  0.5806079638978652  1.0000
  K   K2        1.0  0.826682912699186  0.23401237475586179  0.01767265777934464  1.0000
  K   K3        1.0  0.3825956768691604  0.7487807936034938  0.5513477360716026  1.0000
  K   K4        1.0  0.29627833189917385  0.706722174085948  0.13114881622152286  1.0000
  N   N1        1.0  0.31612136061200874  0.3351918246342065  0.40040247921370004  1.0000
  N   N2        1.0  0.96741510834616  0.9239381075875472  0.34765352062803134  1.0000
  N   N3        1.0  0.7850443873592046  0.7764481572030706  0.8769487780217521  1.0000
  N   N4        1.0  0.33982205969956825  0.355553855961499  0.8254444843948194  1.0000
  O   O1        1.0  0.7316157332698785  0.9839175624854296  0.3199736857556177  1.0000
  O   O2        1.0  0.3441139366183674  0.1892205700186672  0.7483318315170511  1.0000
  O   O3        1.0  0.9864682611768874  0.7790388587155701  0.4353359365905811  1.0000
  O   O4        1.0  0.4534905143963668  0.5349788741861828  0.818107115899819  1.0000
  O   O5        1.0  0.6153644138949955  0.7880560516416523  0.9784522716458053  1.0000
  O   O6        1.0  0.9947934716789661  0.696276836993291  0.878653307314456  1.0000
  O   O7        1.0  0.11926924927418649  0.012422609983339106  0.27110310914900393  1.0000
  O   O8        1.0  0.35104202625087483  0.34269102046697847  0.27075258773085975  1.0000
  O   O9        1.0  0.7715482969378769  0.9243234561930517  0.7593918244977894  1.0000
  O   O10       1.0  0.21973937991948045  0.3327991555214466  0.9411150491944664  1.0000
  O   O11       1.0  0.16364755515874174  0.4651103540351238  0.4922542340469252  1.0000
  O   O12       1.0  0.4539255392113378  0.1921175495917009  0.47492509822532164  1.0000
data_image171
_chemical_formula_structural       K4N4O12
_chemical_formula_sum              "K4 N4 O12"
_cell_length_a       5.602235
_cell_length_b       6.405085
_cell_length_c       9.268196
_cell_angle_alpha    90.0
_cell_angle_beta     90.0
_cell_angle_gamma    90.0

_space_group_name_H-M_alt    "P 1"
_space_group_IT_number       1

loop_
  _space_group_symop_operation_xyz
  'x, y, z'

loop_
  _atom_site_type_symbol
  _atom_site_label
  _atom_site_symmetry_multiplicity
  _atom_site_fract_x
  _atom_site_fract_y
  _atom_site_fract_z
  _atom_site_occupancy
  K   K1        1.0  0.9485998172774117  0.2023610520264787  0.5851076187755113  1.0000
  K   K2        1.0  0.7796963543635401  0.214790043672356  0.017891410983425754  1.0000
  K   K3        1.0  0.4140458512437145  0.8419814295862219  0.5565821041363962  1.0000
  K   K4        1.0  0.20686898161940037  0.6314436302469051  0.12570984011712372  1.0000
  N   N1        1.0  0.3365259197662273  0.3547787435533016  0.37525656027186705  1.0000
  N   N2        1.0  0.9451719036013454  0.931728234541521  0.3252983120420083  1.0000
  N   N3        1.0  0.7173671345065669  0.8380254479657012  0.8747131386039811  1.0000
  N   N4        1.0  0.39976331527110176  0.3155106859991438  0.8596233830460187  1.0000
  O   O1        1.0  0.8441234784816052  0.09851533365579024  0.245328177698948  1.0000
  O   O2        1.0  0.28880635472561833  0.19679236644012707  0.7703976725801619  1.0000
  O   O3        1.0  0.8225776017759227  0.8057206414201312  0.4100763536335974  1.0000
  O   O4        1.0  0.5438519884781954  0.4621775398725924  0.8305219199507914  1.0000
  O   O5        1.0  0.5117984039035999  0.8533950076519372  0.9424039891291831  1.0000
  O   O6        1.0  0.8837541752199201  0.739816754224303  0.9312098313084695  1.0000
  O   O7        1.0  0.15830146000471662  0.9377775231279162  0.3420477804885518  1.0000
  O   O8        1.0  0.4868618632613518  0.3750675232493669  0.2733142130073903  1.0000
  O   O9        1.0  0.7802969915056888  0.8470570466226041  0.7264823744099511  1.0000
  O   O10       1.0  0.34345853588158537  0.28487297293890734  0.00047964512652765435  1.0000
  O   O11       1.0  0.17316060062942246  0.5368945410951833  0.4285399876665736  1.0000
  O   O12       1.0  0.3876396818252275  0.21697045595720155  0.48529160803567317  1.0000
data_image172
_chemical_formula_structural       K4N4O12
_chemical_formula_sum              "K4 N4 O12"
_cell_length_a       5.602235
_cell_length_b       6.405085
_cell_length_c       9.268196
_cell_angle_alpha    90.0
_cell_angle_beta     90.0
_cell_angle_gamma    90.0

_space_group_name_H-M_alt    "P 1"
_space_group_IT_number       1

loop_
  _space_group_symop_operation_xyz
  'x, y, z'

loop_
  _atom_site_type_symbol
  _atom_site_label
  _atom_site_symmetry_multiplicity
  _atom_site_fract_x
  _atom_site_fract_y
  _atom_site_fract_z
  _atom_site_occupancy
  K   K1        1.0  0.8394704553843491  0.2691466154883558  0.5590007920410238  1.0000
  K   K2        1.0  0.8170451139479071  0.2843594282098423  0.9915925162914452  1.0000
  K   K3        1.0  0.3481712224569373  0.7094534634360145  0.6460235470176442  1.0000
  K   K4        1.0  0.191105891548925  0.6093737880356127  0.10730995325670811  1.0000
  N   N1        1.0  0.38015214570101674  0.35987449080561895  0.393469959501656  1.0000
  N   N2        1.0  0.8936523481982701  0.9327333149026763  0.3228756457643145  1.0000
  N   N3        1.0  0.8474200412771568  0.8326734623064757  0.8503211128141948  1.0000
  N   N4        1.0  0.37609426029696147  0.34554882728592123  0.850891640575372  1.0000
  O   O1        1.0  0.8772118858626173  0.12387609724841697  0.29353713998333353  1.0000
  O   O2        1.0  0.20769587806229994  0.4834152276558294  0.8243748963530587  1.0000
  O   O3        1.0  0.7818819320625794  0.7850703743662082  0.2702600866169327  1.0000
  O   O4        1.0  0.5770852979361933  0.3228914928447909  0.7841586325283454  1.0000
  O   O5        1.0  0.6339186426434397  0.8571475456623647  0.816216585053817  1.0000
  O   O6        1.0  0.8516571486290612  0.755068188086636  0.9801078978808974  1.0000
  O   O7        1.0  0.061653300586042195  0.8847371048707254  0.422845132349446  1.0000
  O   O8        1.0  0.5371397730029359  0.36175925315756413  0.2944827009146905  1.0000
  O   O9        1.0  0.04099656205055678  0.8445864828690319  0.7962831297978906  1.0000
  O   O10       1.0  0.3203410250395309  0.2276109042571745  0.9560244595192121  1.0000
  O   O11       1.0  0.1775535783488441  0.4631946670552721  0.41604008166807765  1.0000
  O   O12       1.0  0.45070135910468534  0.2642548058346069  0.4980646149309773  1.0000
data_image173
_chemical_formula_structural       K4N4O12
_chemical_formula_sum              "K4 N4 O12"
_cell_length_a       5.602235
_cell_length_b       6.405085
_cell_length_c       9.268196
_cell_angle_alpha    90.0
_cell_angle_beta     90.0
_cell_angle_gamma    90.0

_space_group_name_H-M_alt    "P 1"
_space_group_IT_number       1

loop_
  _space_group_symop_operation_xyz
  'x, y, z'

loop_
  _atom_site_type_symbol
  _atom_site_label
  _atom_site_symmetry_multiplicity
  _atom_site_fract_x
  _atom_site_fract_y
  _atom_site_fract_z
  _atom_site_occupancy
  K   K1        1.0  0.8522992223547021  0.3969288554355245  0.638366357529367  1.0000
  K   K2        1.0  0.7974659708663759  0.2566717130966085  0.0436617433115338  1.0000
  K   K3        1.0  0.23364228875118997  0.7215204150673056  0.5561287612030198  1.0000
  K   K4        1.0  0.33670619283524295  0.6425417561429253  0.10941706901824944  1.0000
  N   N1        1.0  0.36557850926026475  0.32113157997454345  0.35601429227475584  1.0000
  N   N2        1.0  0.8885082442884236  0.8788688771920801  0.333869978807823  1.0000
  N   N3        1.0  0.9523232055901573  0.8492688566770207  0.8749447326473152  1.0000
  N   N4        1.0  0.30723951319627174  0.3111203785645767  0.854382415742781  1.0000
  O   O1        1.0  0.8970620977869311  0.04332009047384111  0.25780377174937397  1.0000
  O   O2        1.0  0.10016073191185804  0.3813098545958601  0.8076446764183531  1.0000
  O   O3        1.0  0.9146300386013868  0.7038576047128765  0.25915209839292674  1.0000
  O   O4        1.0  0.4799746128236362  0.2611951646352865  0.7750800807150566  1.0000
  O   O5        1.0  0.9371053184093855  0.02205206332116412  0.7778900687183634  1.0000
  O   O6        1.0  0.7986203404192698  0.7255455874512091  0.8799430606475127  1.0000
  O   O7        1.0  0.8180625394464461  0.8869437364505174  0.47627276841539  1.0000
  O   O8        1.0  0.5536717679693766  0.24763075385966205  0.31941743731989386  1.0000
  O   O9        1.0  0.13580239239390188  0.8612891562067628  0.9495894081916992  1.0000
  O   O10       1.0  0.3261517159116276  0.26868953530404366  0.9850422213881019  1.0000
  O   O11       1.0  0.199445432868085  0.4031045926244714  0.26997482367259074  1.0000
  O   O12       1.0  0.2872006100545885  0.3128115454353214  0.4878318514965251  1.0000
data_image174
_chemical_formula_structural       K4N4O12
_chemical_formula_sum              "K4 N4 O12"
_cell_length_a       5.602235
_cell_length_b       6.405085
_cell_length_c       9.268196
_cell_angle_alpha    90.0
_cell_angle_beta     90.0
_cell_angle_gamma    90.0

_space_group_name_H-M_alt    "P 1"
_space_group_IT_number       1

loop_
  _space_group_symop_operation_xyz
  'x, y, z'

loop_
  _atom_site_type_symbol
  _atom_site_label
  _atom_site_symmetry_multiplicity
  _atom_site_fract_x
  _atom_site_fract_y
  _atom_site_fract_z
  _atom_site_occupancy
  K   K1        1.0  0.6096107794172092  0.4222582045274727  0.6294374673791141  1.0000
  K   K2        1.0  0.8586320305883449  0.19629365639499752  0.13671483502282766  1.0000
  K   K3        1.0  0.31309552018249653  0.7546651719987916  0.5507951826103992  1.0000
  K   K4        1.0  0.5166382442926165  0.7415804536263683  0.09831596098590811  1.0000
  N   N1        1.0  0.37556621660653877  0.3156534848055092  0.33543683180273026  1.0000
  N   N2        1.0  0.8716266880747056  0.7953958110886469  0.3559454829385291  1.0000
  N   N3        1.0  0.8745584224021123  0.8423449663434788  0.8481317960487398  1.0000
  N   N4        1.0  0.32133951494180035  0.33656860893431845  0.8321985589746923  1.0000
  O   O1        1.0  0.05728603283523924  0.9273821442384147  0.35595487264758563  1.0000
  O   O2        1.0  0.16954919673776425  0.47949035274151686  0.7887364009212937  1.0000
  O   O3        1.0  0.8448316159703143  0.6943611535817485  0.24508657737988093  1.0000
  O   O4        1.0  0.3488587954245035  0.15928825728068138  0.7859071469410241  1.0000
  O   O5        1.0  0.9783301273043313  0.9528346613558298  0.7442218032647349  1.0000
  O   O6        1.0  0.7197041091911378  0.7130695499787101  0.8222658441138353  1.0000
  O   O7        1.0  0.7113683147065839  0.8010075380282793  0.44498192938514647  1.0000
  O   O8        1.0  0.5941258556702114  0.24292872364881551  0.3654952808866786  1.0000
  O   O9        1.0  0.9416064445945699  0.8793536680625023  0.9779960842211907  1.0000
  O   O10       1.0  0.4538537906810305  0.3660812694535027  0.9327913559279751  1.0000
  O   O11       1.0  0.2845984465725082  0.36131048836156443  0.21506735706885632  1.0000
  O   O12       1.0  0.21492257053215516  0.366713208045945  0.4420369185630584  1.0000
data_image175
_chemical_formula_structural       K4N4O12
_chemical_formula_sum              "K4 N4 O12"
_cell_length_a       5.602235
_cell_length_b       6.405085
_cell_length_c       9.268196
_cell_angle_alpha    90.0
_cell_angle_beta     90.0
_cell_angle_gamma    90.0

_space_group_name_H-M_alt    "P 1"
_space_group_IT_number       1

loop_
  _space_group_symop_operation_xyz
  'x, y, z'

loop_
  _atom_site_type_symbol
  _atom_site_label
  _atom_site_symmetry_multiplicity
  _atom_site_fract_x
  _atom_site_fract_y
  _atom_site_fract_z
  _atom_site_occupancy
  K   K1        1.0  0.8158324789329441  0.34605558075976905  0.6405396941522714  1.0000
  K   K2        1.0  0.8662459514443378  0.24926725867802269  0.23489818739700166  1.0000
  K   K3        1.0  0.3619014627000149  0.8843598051044479  0.5645435395351236  1.0000
  K   K4        1.0  0.398401392350352  0.7978376426929493  0.08616467153985452  1.0000
  N   N1        1.0  0.33954481654595375  0.36614002604072005  0.3183184604756161  1.0000
  N   N2        1.0  0.9158771820654323  0.7636038865025152  0.3047551662874082  1.0000
  N   N3        1.0  0.8227378427428926  0.8087165552973692  0.8562774212930616  1.0000
  N   N4        1.0  0.27853521924210645  0.2924115623487931  0.8243000961593605  1.0000
  O   O1        1.0  0.12216628925051433  0.7678187436767866  0.27040155810613165  1.0000
  O   O2        1.0  0.07519167856515674  0.3799494389804455  0.8478079573465935  1.0000
  O   O3        1.0  0.7667013971871057  0.6473997762830872  0.22594491245542492  1.0000
  O   O4        1.0  0.3159150325221076  0.18844772856953798  0.7072610904325092  1.0000
  O   O5        1.0  0.9126898885798354  0.9307298160676217  0.7607178147860777  1.0000
  O   O6        1.0  0.6492981983482435  0.6719621890977598  0.8355268290677181  1.0000
  O   O7        1.0  0.8382280936824315  0.8649574860809598  0.41088374893340496  1.0000
  O   O8        1.0  0.4542099292267954  0.18725962586767175  0.3414825348101816  1.0000
  O   O9        1.0  0.9308431850689705  0.8277130561001621  0.9791060931190069  1.0000
  O   O10       1.0  0.43122451040123355  0.2399301766289006  0.9112061262511677  1.0000
  O   O11       1.0  0.31349734385836586  0.4428628328329561  0.1901059228342034  1.0000
  O   O12       1.0  0.2339118599322701  0.44904003437155876  0.428750501642918  1.0000
data_image176
_chemical_formula_structural       K4N4O12
_chemical_formula_sum              "K4 N4 O12"
_cell_length_a       5.602235
_cell_length_b       6.405085
_cell_length_c       9.268196
_cell_angle_alpha    90.0
_cell_angle_beta     90.0
_cell_angle_gamma    90.0

_space_group_name_H-M_alt    "P 1"
_space_group_IT_number       1

loop_
  _space_group_symop_operation_xyz
  'x, y, z'

loop_
  _atom_site_type_symbol
  _atom_site_label
  _atom_site_symmetry_multiplicity
  _atom_site_fract_x
  _atom_site_fract_y
  _atom_site_fract_z
  _atom_site_occupancy
  K   K1        1.0  0.9588689058230959  0.2074812174562163  0.6259480133159625  1.0000
  K   K2        1.0  0.9755703520268679  0.306728052659176  0.13784385989535425  1.0000
  K   K3        1.0  0.3695110902367632  0.7939502447880208  0.5629233312867926  1.0000
  K   K4        1.0  0.25221071691543884  0.7816030459154018  0.0214287765085468  1.0000
  N   N1        1.0  0.3942246182918256  0.3257588842911073  0.3817430576725275  1.0000
  N   N2        1.0  0.7990544895831803  0.7820233434581203  0.34532071480380333  1.0000
  N   N3        1.0  0.7631939198938364  0.8662946312394728  0.8679668426293018  1.0000
  N   N4        1.0  0.32640874879375437  0.35505521992454087  0.8216965055860597  1.0000
  O   O1        1.0  0.973027219775102  0.7110451634796622  0.28059124060580576  1.0000
  O   O2        1.0  0.3044266374624125  0.44132229646648286  0.9501776507972656  1.0000
  O   O3        1.0  0.6150131895926993  0.7339310075198207  0.2840863157321889  1.0000
  O   O4        1.0  0.38063706215253923  0.425648752275796  0.7048970278253907  1.0000
  O   O5        1.0  0.896233744974593  0.9536344201364031  0.7885533804494327  1.0000
  O   O6        1.0  0.6408217967859571  0.6935028135082565  0.8441470428392699  1.0000
  O   O7        1.0  0.8566047334077715  0.9482256306613208  0.4313313796747018  1.0000
  O   O8        1.0  0.3772020610583301  0.16035044086887185  0.4673912551140013  1.0000
  O   O9        1.0  0.7288058018354595  0.9366857633254597  0.9945374264077803  1.0000
  O   O10       1.0  0.22825170820943796  0.1745705843335933  0.8228726953494296  1.0000
  O   O11       1.0  0.5538770782210466  0.29495925461909606  0.27708999743329327  1.0000
  O   O12       1.0  0.2770136728748361  0.49560315480140316  0.40016978928638236  1.0000
data_image177
_chemical_formula_structural       K4N4O12
_chemical_formula_sum              "K4 N4 O12"
_cell_length_a       5.602235
_cell_length_b       6.405085
_cell_length_c       9.268196
_cell_angle_alpha    90.0
_cell_angle_beta     90.0
_cell_angle_gamma    90.0

_space_group_name_H-M_alt    "P 1"
_space_group_IT_number       1

loop_
  _space_group_symop_operation_xyz
  'x, y, z'

loop_
  _atom_site_type_symbol
  _atom_site_label
  _atom_site_symmetry_multiplicity
  _atom_site_fract_x
  _atom_site_fract_y
  _atom_site_fract_z
  _atom_site_occupancy
  K   K1        1.0  0.0401484468883484  0.2887953150461659  0.5866418559474511  1.0000
  K   K2        1.0  0.9437425666234979  0.32316340017836076  0.1020462952186729  1.0000
  K   K3        1.0  0.29939667404252246  0.8208973015039625  0.5556949636763031  1.0000
  K   K4        1.0  0.20967980815432152  0.7722165254203159  0.9919122636126348  1.0000
  N   N1        1.0  0.49461066803755604  0.3233160773569106  0.36840449548622944  1.0000
  N   N2        1.0  0.8067721135634698  0.7782761125406756  0.339423212020568  1.0000
  N   N3        1.0  0.7207746273880133  0.8442125962837218  0.888054304062404  1.0000
  N   N4        1.0  0.3330820092803104  0.3015975831917346  0.8913152623834514  1.0000
  O   O1        1.0  0.005629577582500201  0.7656940266055223  0.24531073036352669  1.0000
  O   O2        1.0  0.37634734995051655  0.3464594733431341  0.02353170681354657  1.0000
  O   O3        1.0  0.6011412859996694  0.7862681834055293  0.27203020946200485  1.0000
  O   O4        1.0  0.24894629014574043  0.43250671263398466  0.8048487401071265  1.0000
  O   O5        1.0  0.8430529654428698  0.02632467196398372  0.8642583636781408  1.0000
  O   O6        1.0  0.6116520248647694  0.7642039532078881  0.7814739323748147  1.0000
  O   O7        1.0  0.8362003029413256  0.8300491728946069  0.45884356626393896  1.0000
  O   O8        1.0  0.49591660430887635  0.2082633970117194  0.4945377989472876  1.0000
  O   O9        1.0  0.6534369713970818  0.7679797756852519  0.003189971453462226  1.0000
  O   O10       1.0  0.27739624871796176  0.10694245312212104  0.8643762344405009  1.0000
  O   O11       1.0  0.6777904624367805  0.28485663160706026  0.29069015608648113  1.0000
  O   O12       1.0  0.300830913011124  0.4371872174271793  0.3543036695807894  1.0000
data_image178
_chemical_formula_structural       K4N4O12
_chemical_formula_sum              "K4 N4 O12"
_cell_length_a       5.602235
_cell_length_b       6.405085
_cell_length_c       9.268196
_cell_angle_alpha    90.0
_cell_angle_beta     90.0
_cell_angle_gamma    90.0

_space_group_name_H-M_alt    "P 1"
_space_group_IT_number       1

loop_
  _space_group_symop_operation_xyz
  'x, y, z'

loop_
  _atom_site_type_symbol
  _atom_site_label
  _atom_site_symmetry_multiplicity
  _atom_site_fract_x
  _atom_site_fract_y
  _atom_site_fract_z
  _atom_site_occupancy
  K   K1        1.0  0.9742687767754672  0.3769647086792854  0.5599713191645355  1.0000
  K   K2        1.0  0.875573618386007  0.3194510398209085  0.1252579968757786  1.0000
  K   K3        1.0  0.3648642022235832  0.8059461272157258  0.48569449015155997  1.0000
  K   K4        1.0  0.2396505269816921  0.7260574152619983  0.038742497706102164  1.0000
  N   N1        1.0  0.45505499866806187  0.2508473441087359  0.41217517295494416  1.0000
  N   N2        1.0  0.8803020777161219  0.8145454099211886  0.31030728890196424  1.0000
  N   N3        1.0  0.7304470458285846  0.9012195362087854  0.8444263631722155  1.0000
  N   N4        1.0  0.318293079693341  0.2601914037032649  0.9238987490164152  1.0000
  O   O1        1.0  0.07318928953844125  0.9005279944097093  0.27921402714106347  1.0000
  O   O2        1.0  0.46565999605508734  0.3216372011806678  0.017042198088067034  1.0000
  O   O3        1.0  0.661017273108787  0.8242209188800831  0.2411184017310919  1.0000
  O   O4        1.0  0.20744378091352544  0.38128197910882683  0.8346273135352662  1.0000
  O   O5        1.0  0.7045546333969788  0.02868353279843075  0.9463065769019537  1.0000
  O   O6        1.0  0.5797070956210744  0.9328538661901807  0.737371654449602  1.0000
  O   O7        1.0  0.886752547673413  0.7580662655357956  0.4424683433157395  1.0000
  O   O8        1.0  0.3505577470709847  0.23717847858163296  0.5334418850761502  1.0000
  O   O9        1.0  0.8572868033768519  0.7235348284604272  0.8356083939295214  1.0000
  O   O10       1.0  0.21670690161483952  0.09777649993418604  0.9413997010246938  1.0000
  O   O11       1.0  0.6618149849092043  0.1446712433693218  0.3970938652098685  1.0000
  O   O12       1.0  0.3324504737003011  0.3697396054363631  0.313701512036195  1.0000
data_image179
_chemical_formula_structural       K4N4O12
_chemical_formula_sum              "K4 N4 O12"
_cell_length_a       5.602235
_cell_length_b       6.405085
_cell_length_c       9.268196
_cell_angle_alpha    90.0
_cell_angle_beta     90.0
_cell_angle_gamma    90.0

_space_group_name_H-M_alt    "P 1"
_space_group_IT_number       1

loop_
  _space_group_symop_operation_xyz
  'x, y, z'

loop_
  _atom_site_type_symbol
  _atom_site_label
  _atom_site_symmetry_multiplicity
  _atom_site_fract_x
  _atom_site_fract_y
  _atom_site_fract_z
  _atom_site_occupancy
  K   K1        1.0  0.905589155157835  0.28359954139011656  0.6920231581575287  1.0000
  K   K2        1.0  0.8836569316400571  0.354700548890184  0.19464067488642972  1.0000
  K   K3        1.0  0.37041368678936326  0.7771695006465805  0.44259032017815714  1.0000
  K   K4        1.0  0.27756460889420753  0.8070562535298138  0.9679375747935709  1.0000
  N   N1        1.0  0.46050014926900235  0.2634299579969616  0.429275785787842  1.0000
  N   N2        1.0  0.8558862305039397  0.7817940282480034  0.25661080691425764  1.0000
  N   N3        1.0  0.7279437408179739  0.8487557453451315  0.8068359233114677  1.0000
  N   N4        1.0  0.3293293659054699  0.31955975973625217  0.9355611813334032  1.0000
  O   O1        1.0  0.020247571245333194  0.8982184354333899  0.2056558004697162  1.0000
  O   O2        1.0  0.30471242762161355  0.3006495470548178  0.06941521175222096  1.0000
  O   O3        1.0  0.6351135340257417  0.8003559279851072  0.216349072347356  1.0000
  O   O4        1.0  0.4799502646191316  0.42560488447908573  0.8709190596156959  1.0000
  O   O5        1.0  0.6524586851454248  0.9170804867331652  0.9318029072662634  1.0000
  O   O6        1.0  0.5561986262688503  0.8896629642286937  0.7117626853579311  1.0000
  O   O7        1.0  0.9100997178538164  0.665830206812639  0.36705193552958426  1.0000
  O   O8        1.0  0.3878071692541544  0.40488993939263496  0.5535959481726408  1.0000
  O   O9        1.0  0.9194386207492912  0.7320716406892218  0.7963912334565151  1.0000
  O   O10       1.0  0.16245479747785652  0.22559545006275175  0.8688170233208441  1.0000
  O   O11       1.0  0.6341865599348473  0.138702174805521  0.4596528377042643  1.0000
  O   O12       1.0  0.38357234377275434  0.3499467059197083  0.3088752642816187  1.0000
data_image180
_chemical_formula_structural       K4N4O12
_chemical_formula_sum              "K4 N4 O12"
_cell_length_a       5.602235
_cell_length_b       6.405085
_cell_length_c       9.268196
_cell_angle_alpha    90.0
_cell_angle_beta     90.0
_cell_angle_gamma    90.0

_space_group_name_H-M_alt    "P 1"
_space_group_IT_number       1

loop_
  _space_group_symop_operation_xyz
  'x, y, z'

loop_
  _atom_site_type_symbol
  _atom_site_label
  _atom_site_symmetry_multiplicity
  _atom_site_fract_x
  _atom_site_fract_y
  _atom_site_fract_z
  _atom_site_occupancy
  K   K1        1.0  0.70401388806998  0.42584313447918676  0.7091692731197745  1.0000
  K   K2        1.0  0.9155684450505925  0.2390199777887798  0.22052682314622984  1.0000
  K   K3        1.0  0.2943169159823932  0.7902441275487009  0.4353545736973715  1.0000
  K   K4        1.0  0.21130005595281598  0.9267950307055054  0.883033699062452  1.0000
  N   N1        1.0  0.5048698939757403  0.26162549276718194  0.470439820180667  1.0000
  N   N2        1.0  0.8300145466676343  0.7110573711577064  0.28489702419937935  1.0000
  N   N3        1.0  0.7891883630655043  0.8657948567112759  0.720028053663502  1.0000
  N   N4        1.0  0.4353866917351752  0.306006399799727  0.9905460404879997  1.0000
  O   O1        1.0  0.019203434857424734  0.7745542659087361  0.22264757231465482  1.0000
  O   O2        1.0  0.36247180437946724  0.14753087671859866  0.06272808743167851  1.0000
  O   O3        1.0  0.6187653545587835  0.6808955902758062  0.222222771002895  1.0000
  O   O4        1.0  0.6337792690010327  0.39903664233939273  0.9975220010404737  1.0000
  O   O5        1.0  0.7715204149630004  0.9345778104462259  0.854532006090071  1.0000
  O   O6        1.0  0.6024782870298395  0.7513954431243978  0.7015780664218899  1.0000
  O   O7        1.0  0.8146094056579103  0.6952548641900422  0.42318221988558014  1.0000
  O   O8        1.0  0.3701951950864619  0.2985456761579627  0.5660391279355429  1.0000
  O   O9        1.0  0.0015364954673747497  0.841101671760021  0.6610551516792763  1.0000
  O   O10       1.0  0.25399901192515184  0.3703102122181526  0.9104439787887884  1.0000
  O   O11       1.0  0.7234679618339116  0.16672675670451173  0.4877478488692066  1.0000
  O   O12       1.0  0.4798258980452282  0.3585855191877954  0.3378383929055852  1.0000
data_image181
_chemical_formula_structural       K4N4O12
_chemical_formula_sum              "K4 N4 O12"
_cell_length_a       5.602235
_cell_length_b       6.405085
_cell_length_c       9.268196
_cell_angle_alpha    90.0
_cell_angle_beta     90.0
_cell_angle_gamma    90.0

_space_group_name_H-M_alt    "P 1"
_space_group_IT_number       1

loop_
  _space_group_symop_operation_xyz
  'x, y, z'

loop_
  _atom_site_type_symbol
  _atom_site_label
  _atom_site_symmetry_multiplicity
  _atom_site_fract_x
  _atom_site_fract_y
  _atom_site_fract_z
  _atom_site_occupancy
  K   K1        1.0  0.7414978823986118  0.43251887817553347  0.7371614062301292  1.0000
  K   K2        1.0  0.8929898163113121  0.20723188953548366  0.2703296630294569  1.0000
  K   K3        1.0  0.2973514643670305  0.7325818716317876  0.4407733177311277  1.0000
  K   K4        1.0  0.22844463217783528  0.8482860014840842  0.9315488106367632  1.0000
  N   N1        1.0  0.45015739825640955  0.20619262888745704  0.45274981890933963  1.0000
  N   N2        1.0  0.7307800704496135  0.7677753278725663  0.2161261345130372  1.0000
  N   N3        1.0  0.756020636357387  0.9178963835003947  0.7166305343532514  1.0000
  N   N4        1.0  0.5946406860087694  0.32038951719709247  0.9940567477866676  1.0000
  O   O1        1.0  0.903733252377721  0.8519269541547416  0.1554731148438917  1.0000
  O   O2        1.0  0.6116319288704521  0.1441475165498116  0.055517625474058585  1.0000
  O   O3        1.0  0.5228156012689655  0.8545761614413812  0.20403356363065162  1.0000
  O   O4        1.0  0.753588456532138  0.4810992334869497  0.056808508337451914  1.0000
  O   O5        1.0  0.8403887943849883  0.0685073447911481  0.7822409592613646  1.0000
  O   O6        1.0  0.5248639797763142  0.9135079314515998  0.7148186726719187  1.0000
  O   O7        1.0  0.7682414923413232  0.6152132063986764  0.29313682952435904  1.0000
  O   O8        1.0  0.315577409268102  0.2694373829995072  0.5443541340931126  1.0000
  O   O9        1.0  0.9244374740529114  0.8092750073961362  0.6433810788533263  1.0000
  O   O10       1.0  0.3756664614785965  0.37489438879687703  0.9697364023772942  1.0000
  O   O11       1.0  0.6464033871714606  0.10819103593102616  0.4749855246151223  1.0000
  O   O12       1.0  0.40388886049415135  0.2617697284782975  0.305843991982166  1.0000
data_image182
_chemical_formula_structural       K4N4O12
_chemical_formula_sum              "K4 N4 O12"
_cell_length_a       5.602235
_cell_length_b       6.405085
_cell_length_c       9.268196
_cell_angle_alpha    90.0
_cell_angle_beta     90.0
_cell_angle_gamma    90.0

_space_group_name_H-M_alt    "P 1"
_space_group_IT_number       1

loop_
  _space_group_symop_operation_xyz
  'x, y, z'

loop_
  _atom_site_type_symbol
  _atom_site_label
  _atom_site_symmetry_multiplicity
  _atom_site_fract_x
  _atom_site_fract_y
  _atom_site_fract_z
  _atom_site_occupancy
  K   K1        1.0  0.8424747310717695  0.4293628143599732  0.6949790950170994  1.0000
  K   K2        1.0  0.9062239507989021  0.268538497331976  0.26313288823911  1.0000
  K   K3        1.0  0.31824842760051675  0.7285596241834871  0.4821583657346161  1.0000
  K   K4        1.0  0.1587349693013147  0.8254985179035422  0.9585941626679548  1.0000
  N   N1        1.0  0.4111086649634112  0.2532132331245628  0.48078936455546306  1.0000
  N   N2        1.0  0.7135256165308268  0.7496945605339927  0.19658297169925643  1.0000
  N   N3        1.0  0.7849355485235934  0.8665235630981871  0.7128031845517371  1.0000
  N   N4        1.0  0.5980454883679647  0.32406643892713716  0.9756478941487314  1.0000
  O   O1        1.0  0.8194488733410472  0.8460854776536563  0.10262187427414626  1.0000
  O   O2        1.0  0.5735390253370478  0.22966783338426014  0.09552763235136916  1.0000
  O   O3        1.0  0.48568366740624014  0.7537526027334874  0.1920230360731514  1.0000
  O   O4        1.0  0.798169483251042  0.4127305303433482  0.9459331470274555  1.0000
  O   O5        1.0  0.7854618719822992  0.004924961959762972  0.8090470852054079  1.0000
  O   O6        1.0  0.5933224983661243  0.7677570404622182  0.7181746448159388  1.0000
  O   O7        1.0  0.8211346672721157  0.6775768058709362  0.3167469768543414  1.0000
  O   O8        1.0  0.35166618876563943  0.2974994755464674  0.6109781833474104  1.0000
  O   O9        1.0  0.9790242706027044  0.8604145080844411  0.6478594829436157  1.0000
  O   O10       1.0  0.3968464394975393  0.38307466132553825  0.918033184990545  1.0000
  O   O11       1.0  0.49552059596614284  0.07590095969480797  0.4386519161249935  1.0000
  O   O12       1.0  0.34966058676563866  0.3816517587496077  0.36804042450913144  1.0000
data_image183
_chemical_formula_structural       K4N4O12
_chemical_formula_sum              "K4 N4 O12"
_cell_length_a       5.602235
_cell_length_b       6.405085
_cell_length_c       9.268196
_cell_angle_alpha    90.0
_cell_angle_beta     90.0
_cell_angle_gamma    90.0

_space_group_name_H-M_alt    "P 1"
_space_group_IT_number       1

loop_
  _space_group_symop_operation_xyz
  'x, y, z'

loop_
  _atom_site_type_symbol
  _atom_site_label
  _atom_site_symmetry_multiplicity
  _atom_site_fract_x
  _atom_site_fract_y
  _atom_site_fract_z
  _atom_site_occupancy
  K   K1        1.0  0.7415991362860821  0.41611406890116986  0.6563537520042774  1.0000
  K   K2        1.0  0.909743713856627  0.2782104005559056  0.2381140680753035  1.0000
  K   K3        1.0  0.37251999701663463  0.7850632570587648  0.48279665836947966  1.0000
  K   K4        1.0  0.302683008004175  0.8380364472574804  0.960948785179961  1.0000
  N   N1        1.0  0.33016805823328205  0.2503730351045807  0.48962415521975167  1.0000
  N   N2        1.0  0.7368841590777739  0.7454317863218606  0.20633437170126334  1.0000
  N   N3        1.0  0.8098777864806141  0.8554355593583702  0.7219578123069585  1.0000
  N   N4        1.0  0.5679507826802586  0.319556940690821  0.989671633327145  1.0000
  O   O1        1.0  0.8590547132065542  0.8137652987169578  0.11926893208682032  1.0000
  O   O2        1.0  0.3869712874305655  0.2526184222370928  0.06355218464265021  1.0000
  O   O3        1.0  0.5009222418284494  0.7736387750767727  0.20035254995083052  1.0000
  O   O4        1.0  0.800773193015329  0.2743121897468195  0.008650373880502802  1.0000
  O   O5        1.0  0.8661072694346813  0.029958897457706756  0.7280917209086492  1.0000
  O   O6        1.0  0.5754586048582773  0.808939925812004  0.774173232811207  1.0000
  O   O7        1.0  0.7672899600367364  0.6237041953876595  0.30591203823000535  1.0000
  O   O8        1.0  0.23159896191596868  0.33229001250390966  0.6015684588475985  1.0000
  O   O9        1.0  0.0002844573792493566  0.7372494476163607  0.7022637172865313  1.0000
  O   O10       1.0  0.5272478858378693  0.4805162354857411  0.9122256648507364  1.0000
  O   O11       1.0  0.5239485401748815  0.14631452026232766  0.4876809418947167  1.0000
  O   O12       1.0  0.2154272548483168  0.2746447487738581  0.3712674988342051  1.0000
data_image184
_chemical_formula_structural       K4N4O12
_chemical_formula_sum              "K4 N4 O12"
_cell_length_a       5.602235
_cell_length_b       6.405085
_cell_length_c       9.268196
_cell_angle_alpha    90.0
_cell_angle_beta     90.0
_cell_angle_gamma    90.0

_space_group_name_H-M_alt    "P 1"
_space_group_IT_number       1

loop_
  _space_group_symop_operation_xyz
  'x, y, z'

loop_
  _atom_site_type_symbol
  _atom_site_label
  _atom_site_symmetry_multiplicity
  _atom_site_fract_x
  _atom_site_fract_y
  _atom_site_fract_z
  _atom_site_occupancy
  K   K1        1.0  0.7847928046368147  0.4613082941869939  0.6893617923641657  1.0000
  K   K2        1.0  0.9789902874323713  0.25551992307612337  0.177589307887253  1.0000
  K   K3        1.0  0.2522906994274089  0.767224195101925  0.42724963278006156  1.0000
  K   K4        1.0  0.23084565789224254  0.9120379480730137  0.9537923611274615  1.0000
  N   N1        1.0  0.3089206765099896  0.21811768008876778  0.5346074062725591  1.0000
  N   N2        1.0  0.6971855505141554  0.7173174719399547  0.2338918728666488  1.0000
  N   N3        1.0  0.9544421702399617  0.8699065245232578  0.7186596127610652  1.0000
  N   N4        1.0  0.4694105980174035  0.3108933914570464  0.9831694484065414  1.0000
  O   O1        1.0  0.8750503587031203  0.7882691574784791  0.13134766464429481  1.0000
  O   O2        1.0  0.43296896664767637  0.28166039504538753  0.11497372855045507  1.0000
  O   O3        1.0  0.47278196550050555  0.7051200665780105  0.19714927123466053  1.0000
  O   O4        1.0  0.501892484067024  0.1722834031325783  0.8751605540553538  1.0000
  O   O5        1.0  0.0006924233801322019  0.05623623553205922  0.7358254815337496  1.0000
  O   O6        1.0  0.7062793925878019  0.8105222369212283  0.7406908775002233  1.0000
  O   O7        1.0  0.784518557857367  0.6666968687727263  0.36886942794053224  1.0000
  O   O8        1.0  0.3363245136792833  0.3693137022768237  0.632710171657502  1.0000
  O   O9        1.0  0.12038645551406069  0.7395760140040382  0.7150746655989072  1.0000
  O   O10       1.0  0.606671466424221  0.4722084436016268  0.972684640598223  1.0000
  O   O11       1.0  0.5098227623724363  0.14241283012154313  0.49497176032545875  1.0000
  O   O12       1.0  0.1142894495351535  0.19886659132048848  0.4598946699995905  1.0000
data_image185
_chemical_formula_structural       K4N4O12
_chemical_formula_sum              "K4 N4 O12"
_cell_length_a       5.602235
_cell_length_b       6.405085
_cell_length_c       9.268196
_cell_angle_alpha    90.0
_cell_angle_beta     90.0
_cell_angle_gamma    90.0

_space_group_name_H-M_alt    "P 1"
_space_group_IT_number       1

loop_
  _space_group_symop_operation_xyz
  'x, y, z'

loop_
  _atom_site_type_symbol
  _atom_site_label
  _atom_site_symmetry_multiplicity
  _atom_site_fract_x
  _atom_site_fract_y
  _atom_site_fract_z
  _atom_site_occupancy
  K   K1        1.0  0.8481273899515205  0.38459905644817083  0.7028166778241498  1.0000
  K   K2        1.0  0.9893442783246696  0.36732979771275787  0.23056358646651298  1.0000
  K   K3        1.0  0.22654576338549537  0.6937541824521605  0.38154817223785725  1.0000
  K   K4        1.0  0.24864740471496405  0.8125018126974604  0.9418144206785939  1.0000
  N   N1        1.0  0.39511365418570366  0.26525630534291594  0.5154563470691339  1.0000
  N   N2        1.0  0.6606523749589046  0.7422566898540062  0.25099984852741297  1.0000
  N   N3        1.0  0.8316434601487158  0.8603398252224056  0.7297040049134274  1.0000
  N   N4        1.0  0.5467489893013271  0.345605914158111  0.979079027674936  1.0000
  O   O1        1.0  0.834807203540336  0.8648795501907076  0.23720915369000473  1.0000
  O   O2        1.0  0.47596503965545667  0.25149798718161487  0.09409492072051195  1.0000
  O   O3        1.0  0.441365400145486  0.7652149470906132  0.16860172104163285  1.0000
  O   O4        1.0  0.4407366139557012  0.36486942011910006  0.8489482078687072  1.0000
  O   O5        1.0  0.8465539421782201  0.02924268414901658  0.8190167933677406  1.0000
  O   O6        1.0  0.6287726441804786  0.8335579879786725  0.6887462725708409  1.0000
  O   O7        1.0  0.6617247754639941  0.5863292878772625  0.34021851942787373  1.0000
  O   O8        1.0  0.5054215044641505  0.43383727521717613  0.525596963239398  1.0000
  O   O9        1.0  0.026855052159955446  0.7900292879673596  0.6950666460595393  1.0000
  O   O10       1.0  0.7518540764769117  0.4034285599282322  0.9937757323302323  1.0000
  O   O11       1.0  0.5245748186436024  0.10768523227376553  0.4941508474360491  1.0000
  O   O12       1.0  0.1604489454255842  0.22491711404164857  0.5095682090343976  1.0000
data_image186
_chemical_formula_structural       K4N4O12
_chemical_formula_sum              "K4 N4 O12"
_cell_length_a       5.602235
_cell_length_b       6.405085
_cell_length_c       9.268196
_cell_angle_alpha    90.0
_cell_angle_beta     90.0
_cell_angle_gamma    90.0

_space_group_name_H-M_alt    "P 1"
_space_group_IT_number       1

loop_
  _space_group_symop_operation_xyz
  'x, y, z'

loop_
  _atom_site_type_symbol
  _atom_site_label
  _atom_site_symmetry_multiplicity
  _atom_site_fract_x
  _atom_site_fract_y
  _atom_site_fract_z
  _atom_site_occupancy
  K   K1        1.0  0.8706728752768815  0.3892895897489544  0.6620738014014984  1.0000
  K   K2        1.0  0.07378941012261464  0.20691623350578214  0.2331325423384026  1.0000
  K   K3        1.0  0.15877296285392806  0.7248616890365998  0.40325632506486697  1.0000
  K   K4        1.0  0.29826760012177467  0.9890110534342192  0.9184927083706724  1.0000
  N   N1        1.0  0.4213717678536012  0.16730868986745068  0.5493100271301443  1.0000
  N   N2        1.0  0.6614613658726312  0.8003710233699234  0.22578715824035567  1.0000
  N   N3        1.0  0.7455502670290738  0.8614835425446585  0.7258224589561516  1.0000
  N   N4        1.0  0.5382732506751786  0.3738787644239179  0.04491236784039341  1.0000
  O   O1        1.0  0.8545770083311677  0.8942150898711176  0.15733341318894767  1.0000
  O   O2        1.0  0.4586899795625299  0.21163279216140746  0.10600473493711043  1.0000
  O   O3        1.0  0.4547276408764568  0.8724599527881348  0.180517730730839  1.0000
  O   O4        1.0  0.428005882388907  0.5441451355223806  0.02350709524423469  1.0000
  O   O5        1.0  0.7328387956674818  0.015520033802079725  0.7952178722515216  1.0000
  O   O6        1.0  0.5711418050765816  0.777544671515214  0.664732946546482  1.0000
  O   O7        1.0  0.6392506726361615  0.6070608053449911  0.25671140254137215  1.0000
  O   O8        1.0  0.49545034713489744  0.3590209658495397  0.5530472133126062  1.0000
  O   O9        1.0  0.9548517154739642  0.7805463418910242  0.6830646640863309  1.0000
  O   O10       1.0  0.7505742157866675  0.37094751555693156  0.986567497681358  1.0000
  O   O11       1.0  0.5142605359553909  0.04167696198604149  0.42733806298522675  1.0000
  O   O12       1.0  0.28738387518755076  0.06216454090360805  0.6222777908286042  1.0000
data_image187
_chemical_formula_structural       K4N4O12
_chemical_formula_sum              "K4 N4 O12"
_cell_length_a       5.602235
_cell_length_b       6.405085
_cell_length_c       9.268196
_cell_angle_alpha    90.0
_cell_angle_beta     90.0
_cell_angle_gamma    90.0

_space_group_name_H-M_alt    "P 1"
_space_group_IT_number       1

loop_
  _space_group_symop_operation_xyz
  'x, y, z'

loop_
  _atom_site_type_symbol
  _atom_site_label
  _atom_site_symmetry_multiplicity
  _atom_site_fract_x
  _atom_site_fract_y
  _atom_site_fract_z
  _atom_site_occupancy
  K   K1        1.0  0.8585811341009493  0.37349723262171863  0.599446555770152  1.0000
  K   K2        1.0  0.14776544298919192  0.20789615338808254  0.2818694991592814  1.0000
  K   K3        1.0  0.2058500904153998  0.7289402279848106  0.5117213677658377  1.0000
  K   K4        1.0  0.2184779478040445  0.023240075864122023  0.893480682148903  1.0000
  N   N1        1.0  0.36754745486613233  0.22775866124309518  0.5271417470278702  1.0000
  N   N2        1.0  0.7091956514563957  0.7046287198185879  0.24119409621133547  1.0000
  N   N3        1.0  0.7508769840792633  0.7794396286226853  0.719861070006629  1.0000
  N   N4        1.0  0.5398728569119418  0.4657839052001116  0.9899468139567982  1.0000
  O   O1        1.0  0.8137362992429211  0.8180431066210426  0.14732553387580194  1.0000
  O   O2        1.0  0.4833132796882045  0.2952804148626849  0.048449050862425014  1.0000
  O   O3        1.0  0.493921319675958  0.7433896408876177  0.24640982068694073  1.0000
  O   O4        1.0  0.4029943970241212  0.5495022505473155  0.8965889345683007  1.0000
  O   O5        1.0  0.6369112922273358  0.9402120087608782  0.7777101802497723  1.0000
  O   O6        1.0  0.6280864062957103  0.7023402954891473  0.6116350039363551  1.0000
  O   O7        1.0  0.8192814804828439  0.5528539058406804  0.3079452182880815  1.0000
  O   O8        1.0  0.36535751665334826  0.39256433101720434  0.44475573643399724  1.0000
  O   O9        1.0  0.9553326322922143  0.729480165337044  0.7539952855375667  1.0000
  O   O10       1.0  0.7646723262371768  0.5004237904089406  0.9935161698550427  1.0000
  O   O11       1.0  0.47320733667332116  0.061973232852830254  0.4742343024251966  1.0000
  O   O12       1.0  0.23153375621745031  0.22019032803198732  0.6418534959030642  1.0000
data_image188
_chemical_formula_structural       K4N4O12
_chemical_formula_sum              "K4 N4 O12"
_cell_length_a       5.602235
_cell_length_b       6.405085
_cell_length_c       9.268196
_cell_angle_alpha    90.0
_cell_angle_beta     90.0
_cell_angle_gamma    90.0

_space_group_name_H-M_alt    "P 1"
_space_group_IT_number       1

loop_
  _space_group_symop_operation_xyz
  'x, y, z'

loop_
  _atom_site_type_symbol
  _atom_site_label
  _atom_site_symmetry_multiplicity
  _atom_site_fract_x
  _atom_site_fract_y
  _atom_site_fract_z
  _atom_site_occupancy
  K   K1        1.0  0.8434222113100618  0.33777148258176615  0.5774642819465299  1.0000
  K   K2        1.0  0.09294741461964517  0.27078798260920167  0.17933107967230122  1.0000
  K   K3        1.0  0.38846677999124757  0.7468024619588642  0.546868813897447  1.0000
  K   K4        1.0  0.15548440221604298  0.9294047909035289  0.9549158880083499  1.0000
  N   N1        1.0  0.27599177070981734  0.24494638040545058  0.5467070933479657  1.0000
  N   N2        1.0  0.6590368659840323  0.662944479293801  0.2763270339022479  1.0000
  N   N3        1.0  0.8319613107516912  0.8537620347812855  0.6900973771698267  1.0000
  N   N4        1.0  0.5460768646297569  0.40701092163832314  0.94939917148697  1.0000
  O   O1        1.0  0.7593543021779557  0.8448606838074025  0.3156265896330739  1.0000
  O   O2        1.0  0.39401753206735357  0.26561914238535733  0.9831255946315198  1.0000
  O   O3        1.0  0.4458776744876548  0.6814403931638581  0.21780202894031175  1.0000
  O   O4        1.0  0.44068291478355004  0.5957296680927947  0.9039672901052557  1.0000
  O   O5        1.0  0.6976078439842621  0.971194399433337  0.7582438688691578  1.0000
  O   O6        1.0  0.8376410847033042  0.8504820869628805  0.5554574568517352  1.0000
  O   O7        1.0  0.7826577474017614  0.5378579852252292  0.34030577172553134  1.0000
  O   O8        1.0  0.20529479699610695  0.41942081270506637  0.48632790781084717  1.0000
  O   O9        1.0  0.9611727456113868  0.7245304445535403  0.7605150613260335  1.0000
  O   O10       1.0  0.7473540454777887  0.3582893598644735  0.9444343707337965  1.0000
  O   O11       1.0  0.44624947895966555  0.1455760938485072  0.4741805001182518  1.0000
  O   O12       1.0  0.27940781753423133  0.24015342452531355  0.6856666641201817  1.0000
data_image189
_chemical_formula_structural       K4N4O12
_chemical_formula_sum              "K4 N4 O12"
_cell_length_a       5.602235
_cell_length_b       6.405085
_cell_length_c       9.268196
_cell_angle_alpha    90.0
_cell_angle_beta     90.0
_cell_angle_gamma    90.0

_space_group_name_H-M_alt    "P 1"
_space_group_IT_number       1

loop_
  _space_group_symop_operation_xyz
  'x, y, z'

loop_
  _atom_site_type_symbol
  _atom_site_label
  _atom_site_symmetry_multiplicity
  _atom_site_fract_x
  _atom_site_fract_y
  _atom_site_fract_z
  _atom_site_occupancy
  K   K1        1.0  0.7985869461435704  0.3244441753740767  0.6532248336845731  1.0000
  K   K2        1.0  0.02469150167828338  0.28641258026948613  0.18200102059675577  1.0000
  K   K3        1.0  0.4445207642634521  0.7828597158426077  0.5537325102828604  1.0000
  K   K4        1.0  0.20520710534328812  0.8511682027798296  0.01850627345017486  1.0000
  N   N1        1.0  0.2599220147680543  0.2710017502952269  0.48864327176043193  1.0000
  N   N2        1.0  0.641469476673636  0.7407988548934288  0.23911872943427337  1.0000
  N   N3        1.0  0.8287615711396177  0.8402952206028372  0.7468219719893209  1.0000
  N   N4        1.0  0.5699491069735165  0.37571422902044493  0.9212684673790388  1.0000
  O   O1        1.0  0.7354361102653366  0.9202087864112745  0.24171992712686374  1.0000
  O   O2        1.0  0.4019337727087122  0.277665998408293  0.9641293909087578  1.0000
  O   O3        1.0  0.5171226057708592  0.6900130963940433  0.12711794389712705  1.0000
  O   O4        1.0  0.5554340570993062  0.4940906482563819  0.8129887068706699  1.0000
  O   O5        1.0  0.6359249980354953  0.8697571705229389  0.8137288427898852  1.0000
  O   O6        1.0  0.851630433821513  0.8980458243465663  0.6227777056539665  1.0000
  O   O7        1.0  0.7427344824414501  0.6192833529823984  0.32750583144341006  1.0000
  O   O8        1.0  0.07803926112462736  0.4054733571801052  0.42834890994364333  1.0000
  O   O9        1.0  0.9800997270353866  0.7261299224377853  0.813181069453202  1.0000
  O   O10       1.0  0.7947504827466374  0.28990916577375936  0.9521229548399123  1.0000
  O   O11       1.0  0.4214025499057416  0.17618647583632174  0.3972770420626796  1.0000
  O   O12       1.0  0.3152986398496753  0.3133011351582049  0.6208507589330355  1.0000
data_image190
_chemical_formula_structural       K4N4O12
_chemical_formula_sum              "K4 N4 O12"
_cell_length_a       5.602235
_cell_length_b       6.405085
_cell_length_c       9.268196
_cell_angle_alpha    90.0
_cell_angle_beta     90.0
_cell_angle_gamma    90.0

_space_group_name_H-M_alt    "P 1"
_space_group_IT_number       1

loop_
  _space_group_symop_operation_xyz
  'x, y, z'

loop_
  _atom_site_type_symbol
  _atom_site_label
  _atom_site_symmetry_multiplicity
  _atom_site_fract_x
  _atom_site_fract_y
  _atom_site_fract_z
  _atom_site_occupancy
  K   K1        1.0  0.7708727091819807  0.3221458267877477  0.6876967244252621  1.0000
  K   K2        1.0  0.9517812217149045  0.3147951204379198  0.17283410112891717  1.0000
  K   K3        1.0  0.29115169523813933  0.827125061430371  0.5583676145004206  1.0000
  K   K4        1.0  0.2528360281814047  0.8544073924449569  0.9718823647203154  1.0000
  N   N1        1.0  0.2909530394414314  0.3122311347886803  0.46035849145229146  1.0000
  N   N2        1.0  0.7721865391760458  0.8028596333919317  0.253166673107746  1.0000
  N   N3        1.0  0.8846510029637655  0.7819402460290648  0.7230515952891259  1.0000
  N   N4        1.0  0.5252737636332618  0.32984343114111403  0.9792411463633913  1.0000
  O   O1        1.0  0.9556786592201187  0.8507661803388137  0.20028245949696322  1.0000
  O   O2        1.0  0.40390760158246186  0.242719145464267  0.0798238665554187  1.0000
  O   O3        1.0  0.6512815414329747  0.7133827691561929  0.13716663277148156  1.0000
  O   O4        1.0  0.41723750370860957  0.410547970204708  0.8733111123023104  1.0000
  O   O5        1.0  0.7346268845142402  0.7768780488982718  0.8218978086131722  1.0000
  O   O6        1.0  0.8536894637816318  0.8972182121448044  0.6213580954625674  1.0000
  O   O7        1.0  0.698536372131437  0.7711155796691156  0.3749441405530407  1.0000
  O   O8        1.0  0.21841770204967093  0.5097817317513561  0.4116622798496254  1.0000
  O   O9        1.0  0.06253615205250102  0.6317527087843124  0.726339049905821  1.0000
  O   O10       1.0  0.7389495361077092  0.2588002456958865  0.9416855618681521  1.0000
  O   O11       1.0  0.29706492081053665  0.16283439021155738  0.3662894741694027  1.0000
  O   O12       1.0  0.3497779009438241  0.27451166329722276  0.5912273602036676  1.0000
data_image191
_chemical_formula_structural       K4N4O12
_chemical_formula_sum              "K4 N4 O12"
_cell_length_a       5.602235
_cell_length_b       6.405085
_cell_length_c       9.268196
_cell_angle_alpha    90.0
_cell_angle_beta     90.0
_cell_angle_gamma    90.0

_space_group_name_H-M_alt    "P 1"
_space_group_IT_number       1

loop_
  _space_group_symop_operation_xyz
  'x, y, z'

loop_
  _atom_site_type_symbol
  _atom_site_label
  _atom_site_symmetry_multiplicity
  _atom_site_fract_x
  _atom_site_fract_y
  _atom_site_fract_z
  _atom_site_occupancy
  K   K1        1.0  0.7019689848474566  0.2753422143067056  0.6167917973734469  1.0000
  K   K2        1.0  0.9911762872293632  0.3449245374376435  0.1925968057643129  1.0000
  K   K3        1.0  0.3688387121052509  0.8345454325092294  0.5379645001006947  1.0000
  K   K4        1.0  0.3458492423010876  0.8382879011932713  0.9707723191566444  1.0000
  N   N1        1.0  0.3030318819911238  0.35181894653477574  0.4341514872415139  1.0000
  N   N2        1.0  0.7836722086823604  0.8323856161420912  0.25887668283276444  1.0000
  N   N3        1.0  0.7552108168627776  0.701429886011595  0.730472011142561  1.0000
  N   N4        1.0  0.5327248573472132  0.32880970020487277  0.005006620462887784  1.0000
  O   O1        1.0  0.9972299549692772  0.7330049524352575  0.2444405315939  1.0000
  O   O2        1.0  0.5170559981480536  0.35250028263432065  0.1354608728227216  1.0000
  O   O3        1.0  0.6817970261912675  0.7991963574488673  0.13944682478943005  1.0000
  O   O4        1.0  0.339995340622818  0.37218161975667813  0.9349581442780551  1.0000
  O   O5        1.0  0.6420261256880411  0.6349910359303508  0.8401081444206255  1.0000
  O   O6        1.0  0.6881953827416629  0.8750008825933737  0.6998632775814598  1.0000
  O   O7        1.0  0.7132616682413229  0.9207316837886595  0.370047537097703  1.0000
  O   O8        1.0  0.48901880566475975  0.46479997844046844  0.3915144159455765  1.0000
  O   O9        1.0  0.9602596405023076  0.6254912639200112  0.6890615694684626  1.0000
  O   O10       1.0  0.6648445533898206  0.21611234839841142  0.9329218601475019  1.0000
  O   O11       1.0  0.23499964656186115  0.18872166884660693  0.3754068871707645  1.0000
  O   O12       1.0  0.1948720287575806  0.3896137829314817  0.5595715688936265  1.0000
data_image192
_chemical_formula_structural       K4N4O12
_chemical_formula_sum              "K4 N4 O12"
_cell_length_a       5.602235
_cell_length_b       6.405085
_cell_length_c       9.268196
_cell_angle_alpha    90.0
_cell_angle_beta     90.0
_cell_angle_gamma    90.0

_space_group_name_H-M_alt    "P 1"
_space_group_IT_number       1

loop_
  _space_group_symop_operation_xyz
  'x, y, z'

loop_
  _atom_site_type_symbol
  _atom_site_label
  _atom_site_symmetry_multiplicity
  _atom_site_fract_x
  _atom_site_fract_y
  _atom_site_fract_z
  _atom_site_occupancy
  K   K1        1.0  0.8554888475946527  0.22814956990675614  0.6240708286225167  1.0000
  K   K2        1.0  0.8963661576196287  0.42920220128006514  0.1858207407140237  1.0000
  K   K3        1.0  0.3582010181683015  0.7871937059735918  0.5429266557278015  1.0000
  K   K4        1.0  0.26176557875920325  0.848727122010504  0.9290775222828729  1.0000
  N   N1        1.0  0.3331137421927554  0.2972678853673678  0.46056259090646223  1.0000
  N   N2        1.0  0.8559718336365187  0.9130954020119392  0.2948732209428775  1.0000
  N   N3        1.0  0.766881293185619  0.6933597731943442  0.6836129038447497  1.0000
  N   N4        1.0  0.4225067816613759  0.26114495985695435  0.017957095018861682  1.0000
  O   O1        1.0  0.07136480405006199  0.9645681565419152  0.24234911432723583  1.0000
  O   O2        1.0  0.49138684613918393  0.3412345006765888  0.13869634249769736  1.0000
  O   O3        1.0  0.7278057841163235  0.8052434432323996  0.21422403510370946  1.0000
  O   O4        1.0  0.21655750995834033  0.26816348834647996  0.9878360403319322  1.0000
  O   O5        1.0  0.7217943046397264  0.5141661957238741  0.733935490709487  1.0000
  O   O6        1.0  0.6177040904411693  0.8337367840499663  0.7235349337452477  1.0000
  O   O7        1.0  0.7767778766019722  0.9957580112424987  0.4056798050660717  1.0000
  O   O8        1.0  0.5323356521680351  0.3920521326265648  0.44530435454675094  1.0000
  O   O9        1.0  0.9702813826078426  0.7696466093495572  0.6354270296651143  1.0000
  O   O10       1.0  0.6021152571907735  0.21129805764140433  0.9343622964388165  1.0000
  O   O11       1.0  0.35583901783373034  0.10369456685905824  0.46429053096522727  1.0000
  O   O12       1.0  0.11999547168527289  0.4163986627980746  0.4516920852159718  1.0000
data_image193
_chemical_formula_structural       K4N4O12
_chemical_formula_sum              "K4 N4 O12"
_cell_length_a       5.602235
_cell_length_b       6.405085
_cell_length_c       9.268196
_cell_angle_alpha    90.0
_cell_angle_beta     90.0
_cell_angle_gamma    90.0

_space_group_name_H-M_alt    "P 1"
_space_group_IT_number       1

loop_
  _space_group_symop_operation_xyz
  'x, y, z'

loop_
  _atom_site_type_symbol
  _atom_site_label
  _atom_site_symmetry_multiplicity
  _atom_site_fract_x
  _atom_site_fract_y
  _atom_site_fract_z
  _atom_site_occupancy
  K   K1        1.0  0.8491308469756009  0.14207149636036875  0.6598205655486784  1.0000
  K   K2        1.0  0.8161163731268936  0.37105335775853465  0.16355531399533127  1.0000
  K   K3        1.0  0.48975792979287347  0.8016166062379373  0.44533587208372605  1.0000
  K   K4        1.0  0.19038014440702133  0.8843124192981096  0.9122012582493292  1.0000
  N   N1        1.0  0.3624588220503841  0.2545907689838854  0.47656345130156197  1.0000
  N   N2        1.0  0.9261312691665526  0.896007778143929  0.23224104844677274  1.0000
  N   N3        1.0  0.7777770945401051  0.7241176021872355  0.8281376303695265  1.0000
  N   N4        1.0  0.3537840861929844  0.3703615779090616  0.9962503946152044  1.0000
  O   O1        1.0  0.045188131346688525  0.994838517277425  0.129288725155833  1.0000
  O   O2        1.0  0.39175532753170117  0.49534361656368575  0.10120009840906424  1.0000
  O   O3        1.0  0.7158805919745634  0.8293749325963417  0.22549135461996217  1.0000
  O   O4        1.0  0.176815632050201  0.37020472364903956  0.9190798296249973  1.0000
  O   O5        1.0  0.7628906155819672  0.5965103923696847  0.9292834080801501  1.0000
  O   O6        1.0  0.6135528089940678  0.8647373935500217  0.8048426836019746  1.0000
  O   O7        1.0  0.0005859349822142731  0.9293818120139002  0.34825040395165896  1.0000
  O   O8        1.0  0.5526080940853464  0.28879477550502847  0.4065006838882866  1.0000
  O   O9        1.0  0.9292992609919791  0.7303581668728054  0.7136897440208813  1.0000
  O   O10       1.0  0.5051276752493035  0.21351555831318103  0.9829426066404475  1.0000
  O   O11       1.0  0.37464985667540635  0.1434997089475662  0.5841720131959137  1.0000
  O   O12       1.0  0.16198067462124796  0.3196008653589419  0.4142648392528279  1.0000
data_image194
_chemical_formula_structural       K4N4O12
_chemical_formula_sum              "K4 N4 O12"
_cell_length_a       5.602235
_cell_length_b       6.405085
_cell_length_c       9.268196
_cell_angle_alpha    90.0
_cell_angle_beta     90.0
_cell_angle_gamma    90.0

_space_group_name_H-M_alt    "P 1"
_space_group_IT_number       1

loop_
  _space_group_symop_operation_xyz
  'x, y, z'

loop_
  _atom_site_type_symbol
  _atom_site_label
  _atom_site_symmetry_multiplicity
  _atom_site_fract_x
  _atom_site_fract_y
  _atom_site_fract_z
  _atom_site_occupancy
  K   K1        1.0  0.934504110447383  0.18366150442205734  0.7120690374151377  1.0000
  K   K2        1.0  0.7981442308635145  0.3719214605736567  0.11770965595030723  1.0000
  K   K3        1.0  0.5799143377525258  0.8578956544677929  0.4570842933967915  1.0000
  K   K4        1.0  0.22016844468633956  0.8644261015084244  0.9577404529383764  1.0000
  N   N1        1.0  0.3631604226486463  0.2743138802522542  0.4985231641815891  1.0000
  N   N2        1.0  0.027319624531629387  0.8863651124928403  0.24657684923179146  1.0000
  N   N3        1.0  0.705110707412405  0.7066348138212759  0.7477423595959617  1.0000
  N   N4        1.0  0.23666177285863066  0.3409559331853112  0.952407368072297  1.0000
  O   O1        1.0  0.0859871450137287  0.07177316382711707  0.24081709583201105  1.0000
  O   O2        1.0  0.28471724200130755  0.45353149783898233  0.05680789783478349  1.0000
  O   O3        1.0  0.8001159146789165  0.8335565938473916  0.20824171798667002  1.0000
  O   O4        1.0  0.03101498538219216  0.3447357685433125  0.8918844724472919  1.0000
  O   O5        1.0  0.7769663154620128  0.7164873916241179  0.8861752518913911  1.0000
  O   O6        1.0  0.4889933344308576  0.7870818581496707  0.7212945380266667  1.0000
  O   O7        1.0  0.11625689075502701  0.7866857236246788  0.36399772745033476  1.0000
  O   O8        1.0  0.5938318226540771  0.2607573381808952  0.4868762545201286  1.0000
  O   O9        1.0  0.7842039556663578  0.6159080283070233  0.654588570380403  1.0000
  O   O10       1.0  0.39334525925283526  0.2020226707941617  0.9191210530656491  1.0000
  O   O11       1.0  0.2731859195914598  0.27011764415858885  0.6543758311481387  1.0000
  O   O12       1.0  0.21670459568218645  0.27551900178980365  0.3958214285534155  1.0000
data_image195
_chemical_formula_structural       K4N4O12
_chemical_formula_sum              "K4 N4 O12"
_cell_length_a       5.602235
_cell_length_b       6.405085
_cell_length_c       9.268196
_cell_angle_alpha    90.0
_cell_angle_beta     90.0
_cell_angle_gamma    90.0

_space_group_name_H-M_alt    "P 1"
_space_group_IT_number       1

loop_
  _space_group_symop_operation_xyz
  'x, y, z'

loop_
  _atom_site_type_symbol
  _atom_site_label
  _atom_site_symmetry_multiplicity
  _atom_site_fract_x
  _atom_site_fract_y
  _atom_site_fract_z
  _atom_site_occupancy
  K   K1        1.0  0.872482960171427  0.12575036682472238  0.6597840891011963  1.0000
  K   K2        1.0  0.8509752886421168  0.42073353370144484  0.10642766710673791  1.0000
  K   K3        1.0  0.4390119764035195  0.7874399275788302  0.41463639417621956  1.0000
  K   K4        1.0  0.2459394168226111  0.7696255461012597  0.9752092271583656  1.0000
  N   N1        1.0  0.397465556734832  0.30453040653626  0.5109598049725499  1.0000
  N   N2        1.0  0.9833707425661632  0.9390903505840085  0.28064012468265864  1.0000
  N   N3        1.0  0.6055693971548736  0.721950999029568  0.7241257840525241  1.0000
  N   N4        1.0  0.32494359615416846  0.3707719149930167  0.02194212941470383  1.0000
  O   O1        1.0  0.23794431233660915  0.9757847789417868  0.259187009539277  1.0000
  O   O2        1.0  0.3122573328731755  0.46658267411917226  0.13405277253345593  1.0000
  O   O3        1.0  0.9140607372189913  0.805011372458114  0.18704950771779938  1.0000
  O   O4        1.0  0.2240035716466129  0.4391180229071877  0.8896884204634298  1.0000
  O   O5        1.0  0.6963827627842241  0.7613118515530247  0.8551216789416767  1.0000
  O   O6        1.0  0.37825456503510246  0.7545263309607995  0.7031999095744549  1.0000
  O   O7        1.0  0.9645770376346423  0.9183103145443782  0.4172394615292372  1.0000
  O   O8        1.0  0.5748277915395504  0.3329661822706354  0.42244419736176525  1.0000
  O   O9        1.0  0.7447034535065217  0.6611040543052058  0.6219484587179569  1.0000
  O   O10       1.0  0.47751333619246017  0.20870134589527495  0.013124068657654291  1.0000
  O   O11       1.0  0.4361789876001063  0.20224960536852116  0.6396350857531227  1.0000
  O   O12       1.0  0.20682341232408072  0.40290429338240796  0.47102437510335426  1.0000
data_image196
_chemical_formula_structural       K4N4O12
_chemical_formula_sum              "K4 N4 O12"
_cell_length_a       5.602235
_cell_length_b       6.405085
_cell_length_c       9.268196
_cell_angle_alpha    90.0
_cell_angle_beta     90.0
_cell_angle_gamma    90.0

_space_group_name_H-M_alt    "P 1"
_space_group_IT_number       1

loop_
  _space_group_symop_operation_xyz
  'x, y, z'

loop_
  _atom_site_type_symbol
  _atom_site_label
  _atom_site_symmetry_multiplicity
  _atom_site_fract_x
  _atom_site_fract_y
  _atom_site_fract_z
  _atom_site_occupancy
  K   K1        1.0  0.8283964605835175  0.21118321961313655  0.7079693405970766  1.0000
  K   K2        1.0  0.864538564001307  0.4370197207834834  0.1173911083102797  1.0000
  K   K3        1.0  0.5673897005566609  0.721639231531748  0.3930384942314069  1.0000
  K   K4        1.0  0.29197624693998303  0.8456627856615841  0.9748233515473881  1.0000
  N   N1        1.0  0.31551835892215613  0.28796254814700906  0.4812717285029333  1.0000
  N   N2        1.0  0.9411037010203226  0.9770182278581689  0.24390022366220787  1.0000
  N   N3        1.0  0.6902401482639755  0.7181133435290463  0.7733637303907376  1.0000
  N   N4        1.0  0.3268541756818064  0.2683639900903985  0.9998525523587709  1.0000
  O   O1        1.0  0.16128587438844735  0.9680217710612316  0.23173962333919995  1.0000
  O   O2        1.0  0.2673784745192802  0.4500799947642218  0.03362619265971089  1.0000
  O   O3        1.0  0.7923780282370563  0.8340740783569079  0.18706556546289566  1.0000
  O   O4        1.0  0.16673568867632627  0.16921058483827534  0.9114343112272567  1.0000
  O   O5        1.0  0.7941331344887282  0.7140834788774739  0.9009218482927999  1.0000
  O   O6        1.0  0.5004021820917226  0.619712043541897  0.7360538736060103  1.0000
  O   O7        1.0  0.8857673506011164  0.12297414183361122  0.34791850907849686  1.0000
  O   O8        1.0  0.5410108421414497  0.3437622340258515  0.4755653166534842  1.0000
  O   O9        1.0  0.8184636274768469  0.8058372407551817  0.6682971552251641  1.0000
  O   O10       1.0  0.5074801228789156  0.18034614958234135  0.0667753204603754  1.0000
  O   O11       1.0  0.2743223172882043  0.10782429470522197  0.5404089550942089  1.0000
  O   O12       1.0  0.1424379048882026  0.41079999352586033  0.45881188543829676  1.0000
data_image197
_chemical_formula_structural       K4N4O12
_chemical_formula_sum              "K4 N4 O12"
_cell_length_a       5.602235
_cell_length_b       6.405085
_cell_length_c       9.268196
_cell_angle_alpha    90.0
_cell_angle_beta     90.0
_cell_angle_gamma    90.0

_space_group_name_H-M_alt    "P 1"
_space_group_IT_number       1

loop_
  _space_group_symop_operation_xyz
  'x, y, z'

loop_
  _atom_site_type_symbol
  _atom_site_label
  _atom_site_symmetry_multiplicity
  _atom_site_fract_x
  _atom_site_fract_y
  _atom_site_fract_z
  _atom_site_occupancy
  K   K1        1.0  0.7722163568379965  0.14931894645627633  0.6921973915460917  1.0000
  K   K2        1.0  0.8153986853672651  0.4490263838721118  0.1318396669506271  1.0000
  K   K3        1.0  0.49317330127728787  0.7867062758296703  0.4088653970088882  1.0000
  K   K4        1.0  0.4206613630292245  0.7848046419065072  0.9214180805294463  1.0000
  N   N1        1.0  0.25750588866410046  0.34564526948100344  0.5079847353480312  1.0000
  N   N2        1.0  0.9197385007141774  0.963358223385739  0.2716367614662696  1.0000
  N   N3        1.0  0.8053393783754574  0.7065546907359124  0.7794561485252207  1.0000
  N   N4        1.0  0.3309050982479076  0.25163409708053813  0.9720920443115248  1.0000
  O   O1        1.0  0.11758789230387728  0.07091818883612477  0.2689454557403055  1.0000
  O   O2        1.0  0.19158336754236416  0.4195986904530667  0.9907668053636657  1.0000
  O   O3        1.0  0.8985694135042468  0.7801835738070649  0.23600593378059131  1.0000
  O   O4        1.0  0.23381385612655992  0.07989888951745325  0.013030184571371941  1.0000
  O   O5        1.0  0.9942792369615638  0.8117009273466945  0.8276917768372142  1.0000
  O   O6        1.0  0.7609705408391821  0.518120559650328  0.8222182092406696  1.0000
  O   O7        1.0  0.7291083741871214  0.07821328394912119  0.3158748039504031  1.0000
  O   O8        1.0  0.47109673893139736  0.33035554378452453  0.5247399142737809  1.0000
  O   O9        1.0  0.7072141947592911  0.7822054014485846  0.6773723557219897  1.0000
  O   O10       1.0  0.5644310845899136  0.23716861059885366  0.9579970147157358  1.0000
  O   O11       1.0  0.10264287004236214  0.23195534616030852  0.5634775154228444  1.0000
  O   O12       1.0  0.16732762476133278  0.48564042833848464  0.42585698657483545  1.0000
data_image198
_chemical_formula_structural       K4N4O12
_chemical_formula_sum              "K4 N4 O12"
_cell_length_a       5.602235
_cell_length_b       6.405085
_cell_length_c       9.268196
_cell_angle_alpha    90.0
_cell_angle_beta     90.0
_cell_angle_gamma    90.0

_space_group_name_H-M_alt    "P 1"
_space_group_IT_number       1

loop_
  _space_group_symop_operation_xyz
  'x, y, z'

loop_
  _atom_site_type_symbol
  _atom_site_label
  _atom_site_symmetry_multiplicity
  _atom_site_fract_x
  _atom_site_fract_y
  _atom_site_fract_z
  _atom_site_occupancy
  K   K1        1.0  0.6291975752694432  0.15328194444001006  0.6963500723521241  1.0000
  K   K2        1.0  0.897216864474032  0.5020937749398249  0.20275851358067631  1.0000
  K   K3        1.0  0.39064860401925305  0.8286375328353646  0.4129548668831025  1.0000
  K   K4        1.0  0.3731325315974612  0.7498990597901348  0.8810312406515598  1.0000
  N   N1        1.0  0.2178278782718448  0.340637257461277  0.457697868023024  1.0000
  N   N2        1.0  0.8779272500460267  0.04990827274755372  0.27938846842069975  1.0000
  N   N3        1.0  0.8959937789662333  0.5903128590934535  0.7714750681273316  1.0000
  N   N4        1.0  0.4337605586846527  0.2690160942461576  0.0064731059108462  1.0000
  O   O1        1.0  0.04782733532568688  0.12250990457856115  0.20021034679195582  1.0000
  O   O2        1.0  0.320291085599147  0.3965537965225339  0.10105312895352324  1.0000
  O   O3        1.0  0.9502006651677855  0.8740050596871881  0.3624849363370821  1.0000
  O   O4        1.0  0.4166450194846947  0.07725111106037427  0.036783588582724916  1.0000
  O   O5        1.0  0.9094212497313756  0.7874338323951251  0.8031025196576999  1.0000
  O   O6        1.0  0.08749401006522615  0.4720413881058244  0.7952394865517491  1.0000
  O   O7        1.0  0.6883192680162251  0.13081891874044538  0.2897697872711813  1.0000
  O   O8        1.0  0.43188416417274544  0.3507687245905944  0.4394620468018262  1.0000
  O   O9        1.0  0.7120112155753608  0.5162817813107268  0.6893321992313378  1.0000
  O   O10       1.0  0.6105664198358105  0.313963136301088  0.9227931483384209  1.0000
  O   O11       1.0  0.1033137178604192  0.19626738222616183  0.5258332447130354  1.0000
  O   O12       1.0  0.08134387868286137  0.44999858409330806  0.37934035902312835  1.0000
data_image199
_chemical_formula_structural       K4N4O12
_chemical_formula_sum              "K4 N4 O12"
_cell_length_a       5.602235
_cell_length_b       6.405085
_cell_length_c       9.268196
_cell_angle_alpha    90.0
_cell_angle_beta     90.0
_cell_angle_gamma    90.0

_space_group_name_H-M_alt    "P 1"
_space_group_IT_number       1

loop_
  _space_group_symop_operation_xyz
  'x, y, z'

loop_
  _atom_site_type_symbol
  _atom_site_label
  _atom_site_symmetry_multiplicity
  _atom_site_fract_x
  _atom_site_fract_y
  _atom_site_fract_z
  _atom_site_occupancy
  K   K1        1.0  0.700963363785454  0.12753190376933363  0.7222755472003038  1.0000
  K   K2        1.0  0.8748941847323056  0.543548197078114  0.15258874566715327  1.0000
  K   K3        1.0  0.4463012768968123  0.7929611562086905  0.38175621372638  1.0000
  K   K4        1.0  0.3985952819239509  0.7562069296230621  0.8463468586068724  1.0000
  N   N1        1.0  0.1774670934267515  0.2623256932545804  0.5614609128634838  1.0000
  N   N2        1.0  0.8562885412453658  0.011818863267082813  0.2511554546868733  1.0000
  N   N3        1.0  0.8480198504193822  0.6692812991043222  0.7575383990761458  1.0000
  N   N4        1.0  0.4539195903331348  0.3219371591441763  0.026960593274682892  1.0000
  O   O1        1.0  0.014919445727111185  0.07643371190749937  0.15273059381454424  1.0000
  O   O2        1.0  0.35689038641908866  0.3911655779838039  0.13244290703747666  1.0000
  O   O3        1.0  0.9114587895064691  0.8221411465221514  0.29812641696094677  1.0000
  O   O4        1.0  0.42019855834571596  0.13543204985478471  0.9749701515998286  1.0000
  O   O5        1.0  0.9366363185085358  0.8144712293566454  0.8257273465034315  1.0000
  O   O6        1.0  0.9458765818915826  0.4856570062924854  0.769603134478702  1.0000
  O   O7        1.0  0.6462576261400867  0.11367579551012219  0.2851930866676944  1.0000
  O   O8        1.0  0.3424452952894085  0.41276782913428134  0.5373548913824443  1.0000
  O   O9        1.0  0.6881877207843987  0.6714338240028317  0.649640435981619  1.0000
  O   O10       1.0  0.6310180718243328  0.4296321092629422  0.9666019078949986  1.0000
  O   O11       1.0  0.27019804608658216  0.07776363478451609  0.5988083393805115  1.0000
  O   O12       1.0  0.9556295033683515  0.27767918222188376  0.503238479845446  1.0000
data_image200
_chemical_formula_structural       K4N4O12
_chemical_formula_sum              "K4 N4 O12"
_cell_length_a       5.602235
_cell_length_b       6.405085
_cell_length_c       9.268196
_cell_angle_alpha    90.0
_cell_angle_beta     90.0
_cell_angle_gamma    90.0

_space_group_name_H-M_alt    "P 1"
_space_group_IT_number       1

loop_
  _space_group_symop_operation_xyz
  'x, y, z'

loop_
  _atom_site_type_symbol
  _atom_site_label
  _atom_site_symmetry_multiplicity
  _atom_site_fract_x
  _atom_site_fract_y
  _atom_site_fract_z
  _atom_site_occupancy
  K   K1        1.0  0.7180091168361584  0.1915334522515377  0.7027364428054867  1.0000
  K   K2        1.0  0.8496662293087982  0.52996424893644  0.13293007797169384  1.0000
  K   K3        1.0  0.498722750985066  0.7027944192302402  0.4145998105640276  1.0000
  K   K4        1.0  0.412869249211574  0.8311431870903746  0.8837602067904041  1.0000
  N   N1        1.0  0.15702544094992704  0.22916483378936445  0.551287585808541  1.0000
  N   N2        1.0  0.8510090787060749  0.05192893390639175  0.2281345733472977  1.0000
  N   N3        1.0  0.8298967836238267  0.6913624043249689  0.7539345830488601  1.0000
  N   N4        1.0  0.47066254721304013  0.28629244457800707  0.03718636295047309  1.0000
  O   O1        1.0  0.9822348055073616  0.12100884048558469  0.1238525629978886  1.0000
  O   O2        1.0  0.4479568909756084  0.4124640101155838  0.1334833716704902  1.0000
  O   O3        1.0  0.8595464750272281  0.845588965046061  0.24660083667790222  1.0000
  O   O4        1.0  0.5012136876265849  0.07965350271670384  0.06685251144139509  1.0000
  O   O5        1.0  0.841692296658062  0.8083012921418951  0.8711565687334099  1.0000
  O   O6        1.0  0.9201785666780816  0.5170880108391234  0.7491625039431389  1.0000
  O   O7        1.0  0.6552452798760227  0.13134496639139193  0.284611078405709  1.0000
  O   O8        1.0  0.3592044778568692  0.32404040315307714  0.5778309332824056  1.0000
  O   O9        1.0  0.7530735077774761  0.7810718653668725  0.6412573485548174  1.0000
  O   O10       1.0  0.4899650412052856  0.32842685700965396  0.9039134174306586  1.0000
  O   O11       1.0  0.20102165130338906  0.025662980021513605  0.5818127187957765  1.0000
  O   O12       1.0  0.9916615319795374  0.2528394165831652  0.4603239819398186  1.0000
