data_image0
_chemical_formula_structural       Cd4S4O12
_chemical_formula_sum              "Cd4 S4 O12"
_cell_length_a       9.025715
_cell_length_b       4.573479000000001
_cell_length_c       7.283293351582442
_cell_angle_alpha    88.92985652425466
_cell_angle_beta     90.0
_cell_angle_gamma    90.0

_space_group_name_H-M_alt    "P 1"
_space_group_IT_number       1

loop_
  _space_group_symop_operation_xyz
  'x, y, z'

loop_
  _atom_site_type_symbol
  _atom_site_label
  _atom_site_symmetry_multiplicity
  _atom_site_fract_x
  _atom_site_fract_y
  _atom_site_fract_z
  _atom_site_occupancy
  Cd  Cd1       1.0  0.710632  0.785081  0.473117  1.0000
  Cd  Cd2       1.0  0.210632  0.214919  0.026882999999999997  1.0000
  Cd  Cd3       1.0  0.289368  0.214919  0.526883  1.0000
  Cd  Cd4       1.0  0.789368  0.785081  0.9731169999999999  1.0000
  S   S1        1.0  0.571954  0.258493  0.21230499999999997  1.0000
  S   S2        1.0  0.071954  0.741507  0.2876949999999999  1.0000
  S   S3        1.0  0.428046  0.741507  0.787695  1.0000
  S   S4        1.0  0.928046  0.258493  0.7123050000000001  1.0000
  O   O1        1.0  0.902239  0.734765  0.255043  1.0000
  O   O2        1.0  0.402239  0.265235  0.24495699999999995  1.0000
  O   O3        1.0  0.097761  0.26523500000000005  0.7449569999999999  1.0000
  O   O4        1.0  0.597761  0.7347650000000001  0.7550429999999998  1.0000
  O   O5        1.0  0.6098570000000001  0.9301610000000001  0.18398099999999998  1.0000
  O   O6        1.0  0.109857  0.06983900000000001  0.31601899999999994  1.0000
  O   O7        1.0  0.390143  0.06983900000000001  0.8160189999999998  1.0000
  O   O8        1.0  0.8901430000000001  0.9301610000000001  0.6839809999999998  1.0000
  O   O9        1.0  0.861119  0.306493  0.9063599999999998  1.0000
  O   O10       1.0  0.361119  0.693507  0.5936399999999998  1.0000
  O   O11       1.0  0.138881  0.693507  0.09364  1.0000
  O   O12       1.0  0.638881  0.306493  0.40635999999999994  1.0000
data_image1
_chemical_formula_structural       Cd4S4O12
_chemical_formula_sum              "Cd4 S4 O12"
_cell_length_a       9.025715
_cell_length_b       4.573479000000001
_cell_length_c       7.283293351582442
_cell_angle_alpha    88.92985652425466
_cell_angle_beta     90.0
_cell_angle_gamma    90.0

_space_group_name_H-M_alt    "P 1"
_space_group_IT_number       1

loop_
  _space_group_symop_operation_xyz
  'x, y, z'

loop_
  _atom_site_type_symbol
  _atom_site_label
  _atom_site_symmetry_multiplicity
  _atom_site_fract_x
  _atom_site_fract_y
  _atom_site_fract_z
  _atom_site_occupancy
  Cd  Cd1       1.0  0.6917545269372309  0.7448947133967552  0.46250171990640226  1.0000
  Cd  Cd2       1.0  0.19878500248854075  0.25728951907170416  0.025420856753617813  1.0000
  Cd  Cd3       1.0  0.32185670472836797  0.217698739032732  0.5363314423017237  1.0000
  Cd  Cd4       1.0  0.7765594218443114  0.7474083067172358  0.9988046037853836  1.0000
  S   S1        1.0  0.5733792020107898  0.20628952014326918  0.17925723376258265  1.0000
  S   S2        1.0  0.07826309519550806  0.7959305899871812  0.24912605096832505  1.0000
  S   S3        1.0  0.4373693591032882  0.7782684585896038  0.7885244394800318  1.0000
  S   S4        1.0  0.9123978017396084  0.22788824988860282  0.7442273747561148  1.0000
  O   O1        1.0  0.9128402349205964  0.9220232185003089  0.22459304707719677  1.0000
  O   O2        1.0  0.41083010930240843  0.31103201822232057  0.212890294352791  1.0000
  O   O3        1.0  0.0809390784865271  0.17143284369407236  0.7352307729759022  1.0000
  O   O4        1.0  0.6079081352037652  0.7623400426500773  0.7306963753623167  1.0000
  O   O5        1.0  0.574043314203357  0.8452803275325823  0.2124074277093431  1.0000
  O   O6        1.0  0.16759110147250927  0.09226051496652082  0.2928568050757272  1.0000
  O   O7        1.0  0.3961228991222643  0.09513354873831145  0.8370146207384035  1.0000
  O   O8        1.0  0.8813024625307267  0.8823122280614677  0.7089457329852119  1.0000
  O   O9        1.0  0.8713859747802578  0.3266472720405092  0.9603158662439315  1.0000
  O   O10       1.0  0.36436783688318714  0.7504258261691354  0.5782385948607853  1.0000
  O   O11       1.0  0.14588380314830054  0.7520767212291637  0.05330542546947862  1.0000
  O   O12       1.0  0.6599197495353053  0.28259997478834326  0.3642736688750449  1.0000
data_image2
_chemical_formula_structural       Cd4S4O12
_chemical_formula_sum              "Cd4 S4 O12"
_cell_length_a       9.025715
_cell_length_b       4.573479000000001
_cell_length_c       7.283293351582442
_cell_angle_alpha    88.92985652425466
_cell_angle_beta     90.0
_cell_angle_gamma    90.0

_space_group_name_H-M_alt    "P 1"
_space_group_IT_number       1

loop_
  _space_group_symop_operation_xyz
  'x, y, z'

loop_
  _atom_site_type_symbol
  _atom_site_label
  _atom_site_symmetry_multiplicity
  _atom_site_fract_x
  _atom_site_fract_y
  _atom_site_fract_z
  _atom_site_occupancy
  Cd  Cd1       1.0  0.6896071427597713  0.721390596431575  0.47302497672566357  1.0000
  Cd  Cd2       1.0  0.18118875479643543  0.2873267030590477  0.0396635909381296  1.0000
  Cd  Cd3       1.0  0.3255081359054042  0.22146179170477276  0.5169944964580984  1.0000
  Cd  Cd4       1.0  0.7893183447164042  0.6896162151036755  0.9923507709071405  1.0000
  S   S1        1.0  0.5748100360431181  0.29131822700324367  0.16939022455794792  1.0000
  S   S2        1.0  0.07314472035347645  0.7581231127830281  0.2909912974279349  1.0000
  S   S3        1.0  0.4329111841075323  0.8418474513812683  0.8097253573488712  1.0000
  S   S4        1.0  0.9557783815455843  0.23842547042736717  0.6941220907922335  1.0000
  O   O1        1.0  0.9089629197400589  0.8422960727266868  0.3009844610914936  1.0000
  O   O2        1.0  0.420195981752116  0.3579234048343486  0.2542732995929619  1.0000
  O   O3        1.0  0.11488427314856964  0.10251978146414474  0.7068023248801496  1.0000
  O   O4        1.0  0.5986182768205505  0.7695383327939005  0.7713774924353057  1.0000
  O   O5        1.0  0.6118128204963139  0.958374683592468  0.10960296911632612  1.0000
  O   O6        1.0  0.15476035336531188  0.04521320272660713  0.3034737437315866  1.0000
  O   O7        1.0  0.369401861926848  0.16114995446387925  0.8372960263904887  1.0000
  O   O8        1.0  0.8174635341334556  0.026568552584623095  0.6777819349430225  1.0000
  O   O9        1.0  0.9180358460261491  0.29587573832284125  0.9101534563179483  1.0000
  O   O10       1.0  0.3710784664753161  0.7143255467323203  0.6112829192776955  1.0000
  O   O11       1.0  0.07932143654953468  0.7241459182006884  0.07769904790811137  1.0000
  O   O12       1.0  0.6688235056038082  0.2964499255528543  0.35629643566468006  1.0000
data_image3
_chemical_formula_structural       Cd4S4O12
_chemical_formula_sum              "Cd4 S4 O12"
_cell_length_a       9.025715
_cell_length_b       4.573479000000001
_cell_length_c       7.283293351582442
_cell_angle_alpha    88.92985652425466
_cell_angle_beta     90.0
_cell_angle_gamma    90.0

_space_group_name_H-M_alt    "P 1"
_space_group_IT_number       1

loop_
  _space_group_symop_operation_xyz
  'x, y, z'

loop_
  _atom_site_type_symbol
  _atom_site_label
  _atom_site_symmetry_multiplicity
  _atom_site_fract_x
  _atom_site_fract_y
  _atom_site_fract_z
  _atom_site_occupancy
  Cd  Cd1       1.0  0.7275247792621571  0.7930701992706961  0.4755103908101056  1.0000
  Cd  Cd2       1.0  0.14013439394036717  0.24698246790057052  0.03637047515500968  1.0000
  Cd  Cd3       1.0  0.34956789162889507  0.18501933948134025  0.5117002534844731  1.0000
  Cd  Cd4       1.0  0.7956068095273994  0.6772288999872683  0.939463441313019  1.0000
  S   S1        1.0  0.5517723674709115  0.22617231339715888  0.20939677691097644  1.0000
  S   S2        1.0  0.03179834791892617  0.8602323622775316  0.31520305296993467  1.0000
  S   S3        1.0  0.40553790084363794  0.8189437481790549  0.8264306861538742  1.0000
  S   S4        1.0  0.9909410920570582  0.22570584665129748  0.7031848188812941  1.0000
  O   O1        1.0  0.8681056617421176  0.8453190017893096  0.23188781370230557  1.0000
  O   O2        1.0  0.3807624215359389  0.32183532164325274  0.20443683520134084  1.0000
  O   O3        1.0  0.14204474305110495  0.18337586099426456  0.7410679090745664  1.0000
  O   O4        1.0  0.58269356674646  0.743410327711996  0.8151434778635137  1.0000
  O   O5        1.0  0.5607479967499454  0.8985267731455671  0.23851663241663404  1.0000
  O   O6        1.0  0.07393770416594074  0.18528671347759396  0.31773832086779547  1.0000
  O   O7        1.0  0.42436443564693027  0.1401695209950435  0.8218090191552814  1.0000
  O   O8        1.0  0.878658979614172  0.9519178840732253  0.6898780854661656  1.0000
  O   O9        1.0  0.9231271005459346  0.2504633392062932  0.9242119147639203  1.0000
  O   O10       1.0  0.3442405956511339  0.7357424263666007  0.6328786974575569  1.0000
  O   O11       1.0  0.15543938599721702  0.7596873860680686  0.141610126429632  1.0000
  O   O12       1.0  0.6139832889631518  0.38810745009722597  0.3974314239673506  1.0000
data_image4
_chemical_formula_structural       Cd4S4O12
_chemical_formula_sum              "Cd4 S4 O12"
_cell_length_a       9.025715
_cell_length_b       4.573479000000001
_cell_length_c       7.283293351582442
_cell_angle_alpha    88.92985652425466
_cell_angle_beta     90.0
_cell_angle_gamma    90.0

_space_group_name_H-M_alt    "P 1"
_space_group_IT_number       1

loop_
  _space_group_symop_operation_xyz
  'x, y, z'

loop_
  _atom_site_type_symbol
  _atom_site_label
  _atom_site_symmetry_multiplicity
  _atom_site_fract_x
  _atom_site_fract_y
  _atom_site_fract_z
  _atom_site_occupancy
  Cd  Cd1       1.0  0.7281879935228113  0.7850221226481747  0.4574530048441185  1.0000
  Cd  Cd2       1.0  0.16602517203178555  0.20762140885096053  0.027744973824055517  1.0000
  Cd  Cd3       1.0  0.3704697611702017  0.2753007080828369  0.5513760006894535  1.0000
  Cd  Cd4       1.0  0.7888044859405363  0.8058567280085005  0.9404288226649229  1.0000
  S   S1        1.0  0.5417350669393564  0.16160506504635658  0.1968011819809072  1.0000
  S   S2        1.0  0.011877840926548764  0.7828124791076153  0.3087730642811104  1.0000
  S   S3        1.0  0.4283640268005092  0.6917584314726692  0.8325324880546092  1.0000
  S   S4        1.0  0.9341629035354672  0.23113732640652446  0.6523248982860586  1.0000
  O   O1        1.0  0.8942381525594861  0.9903009387249752  0.19885820307577037  1.0000
  O   O2        1.0  0.36794332401230934  0.22412652365822217  0.2555125536784231  1.0000
  O   O3        1.0  0.0869493216014043  0.338284028981881  0.7567986260006858  1.0000
  O   O4        1.0  0.5883329051457189  0.6486399397175039  0.7699003702766233  1.0000
  O   O5        1.0  0.6068867132496047  0.845215071774355  0.16884093370883818  1.0000
  O   O6        1.0  0.10932174554673668  0.02545265429505198  0.3941239460216606  1.0000
  O   O7        1.0  0.41524449437953675  0.013268756841869015  0.8914068993033417  1.0000
  O   O8        1.0  0.8919331942528438  0.8782042947979922  0.6516989281899187  1.0000
  O   O9        1.0  0.8319478700934758  0.28448460539303894  0.8154826095329392  1.0000
  O   O10       1.0  0.317037036490528  0.6596559547301333  0.7053917663833963  1.0000
  O   O11       1.0  0.09786038235908018  0.6351288083012404  0.1568123640371914  1.0000
  O   O12       1.0  0.5897515424874537  0.20256198112317733  0.42520844073932884  1.0000
data_image5
_chemical_formula_structural       Cd4S4O12
_chemical_formula_sum              "Cd4 S4 O12"
_cell_length_a       9.025715
_cell_length_b       4.573479000000001
_cell_length_c       7.283293351582442
_cell_angle_alpha    88.92985652425466
_cell_angle_beta     90.0
_cell_angle_gamma    90.0

_space_group_name_H-M_alt    "P 1"
_space_group_IT_number       1

loop_
  _space_group_symop_operation_xyz
  'x, y, z'

loop_
  _atom_site_type_symbol
  _atom_site_label
  _atom_site_symmetry_multiplicity
  _atom_site_fract_x
  _atom_site_fract_y
  _atom_site_fract_z
  _atom_site_occupancy
  Cd  Cd1       1.0  0.7330556968783027  0.7178021262555485  0.46485985524066387  1.0000
  Cd  Cd2       1.0  0.21381744760168842  0.19982811948905682  0.033595395934431824  1.0000
  Cd  Cd3       1.0  0.2901732221764275  0.19155058087942156  0.5961791796352254  1.0000
  Cd  Cd4       1.0  0.803158564495591  0.8817868251762094  0.9252157891732673  1.0000
  S   S1        1.0  0.5332738985414347  0.18321366879017414  0.21901823391711328  1.0000
  S   S2        1.0  0.04155808439633602  0.6945931919178903  0.24827916272421016  1.0000
  S   S3        1.0  0.466512643800297  0.7931251672069303  0.8370515229022387  1.0000
  S   S4        1.0  0.9223506257912462  0.299250898945123  0.6617157410419847  1.0000
  O   O1        1.0  0.8854588292119563  0.8517560076084807  0.22218079917141273  1.0000
  O   O2        1.0  0.3692451774977993  0.22561932925629294  0.27622098483385943  1.0000
  O   O3        1.0  0.08279793057908164  0.29692717958686704  0.7125629664229008  1.0000
  O   O4        1.0  0.6017425950859168  0.9389533938851445  0.7500726530691589  1.0000
  O   O5        1.0  0.5782915296127942  0.8353734799530118  0.19020933220676406  1.0000
  O   O6        1.0  0.15865441415118445  0.8707877493020388  0.3407435548083312  1.0000
  O   O7        1.0  0.38614622302081675  0.1518188970195614  0.870965988712102  1.0000
  O   O8        1.0  0.9073223176322716  0.9835521713891272  0.6224027898576251  1.0000
  O   O9        1.0  0.8157899136412006  0.3623103895099441  0.8089904439925754  1.0000
  O   O10       1.0  0.35525460948658655  0.7428407461858098  0.6546491323267839  1.0000
  O   O11       1.0  0.06378860232466958  0.6624949109546461  0.04874662515352438  1.0000
  O   O12       1.0  0.5957725143701501  0.19277493949636032  0.4332810927334802  1.0000
data_image6
_chemical_formula_structural       Cd4S4O12
_chemical_formula_sum              "Cd4 S4 O12"
_cell_length_a       9.025715
_cell_length_b       4.573479000000001
_cell_length_c       7.283293351582442
_cell_angle_alpha    88.92985652425466
_cell_angle_beta     90.0
_cell_angle_gamma    90.0

_space_group_name_H-M_alt    "P 1"
_space_group_IT_number       1

loop_
  _space_group_symop_operation_xyz
  'x, y, z'

loop_
  _atom_site_type_symbol
  _atom_site_label
  _atom_site_symmetry_multiplicity
  _atom_site_fract_x
  _atom_site_fract_y
  _atom_site_fract_z
  _atom_site_occupancy
  Cd  Cd1       1.0  0.7389897487287085  0.6638531324514598  0.46589365735139554  1.0000
  Cd  Cd2       1.0  0.17106271184736616  0.21326077828721407  0.07345957873017649  1.0000
  Cd  Cd3       1.0  0.2753146067725768  0.26961842701703964  0.5492431692644026  1.0000
  Cd  Cd4       1.0  0.7786286224242057  0.8208269308677204  0.9301040971819804  1.0000
  S   S1        1.0  0.5590540559770462  0.13943344553191697  0.23024236515569843  1.0000
  S   S2        1.0  0.050990495957364504  0.7348433389392982  0.19202102179102074  1.0000
  S   S3        1.0  0.4829291316793333  0.7972450142886225  0.8115514737828501  1.0000
  S   S4        1.0  0.9304128241776191  0.3198415305691345  0.7064468556976303  1.0000
  O   O1        1.0  0.8902227675216229  0.8445653277149473  0.20158182207532016  1.0000
  O   O2        1.0  0.4756603748119913  0.31694288610522864  0.3786708548815507  1.0000
  O   O3        1.0  0.10487414380807371  0.3486842500844204  0.7551260953251216  1.0000
  O   O4        1.0  0.6231543215885313  0.898177716788846  0.7021764136646222  1.0000
  O   O5        1.0  0.5272515398261666  0.8636041829228573  0.3404902015902167  1.0000
  O   O6        1.0  0.1674145172655787  0.9977862258935035  0.316290083214042  1.0000
  O   O7        1.0  0.38492667901169036  0.0459529026954636  0.8243710654045697  1.0000
  O   O8        1.0  0.9102390589316408  0.03866163214493068  0.6357556831948353  1.0000
  O   O9        1.0  0.881004766099201  0.35682388323348424  0.9162306635937021  1.0000
  O   O10       1.0  0.4346620838792571  0.583424529367156  0.6691908934976825  1.0000
  O   O11       1.0  0.10273782282954931  0.6454241743209554  0.004839802540457305  1.0000
  O   O12       1.0  0.7096481661496225  0.29888277425800314  0.2403911921366265  1.0000
data_image7
_chemical_formula_structural       Cd4S4O12
_chemical_formula_sum              "Cd4 S4 O12"
_cell_length_a       9.025715
_cell_length_b       4.573479000000001
_cell_length_c       7.283293351582442
_cell_angle_alpha    88.92985652425466
_cell_angle_beta     90.0
_cell_angle_gamma    90.0

_space_group_name_H-M_alt    "P 1"
_space_group_IT_number       1

loop_
  _space_group_symop_operation_xyz
  'x, y, z'

loop_
  _atom_site_type_symbol
  _atom_site_label
  _atom_site_symmetry_multiplicity
  _atom_site_fract_x
  _atom_site_fract_y
  _atom_site_fract_z
  _atom_site_occupancy
  Cd  Cd1       1.0  0.7582207590027525  0.7556775538580376  0.4794078725214548  1.0000
  Cd  Cd2       1.0  0.16396267689537838  0.302146417520099  0.013396830486359975  1.0000
  Cd  Cd3       1.0  0.2839804727653314  0.20486384625431917  0.5581223853196098  1.0000
  Cd  Cd4       1.0  0.8245584400794442  0.7733085737192796  0.9437954021708357  1.0000
  S   S1        1.0  0.5189656911822619  0.14216762058409171  0.19052513127395965  1.0000
  S   S2        1.0  0.09929719425939462  0.6548259857840079  0.2750097085720417  1.0000
  S   S3        1.0  0.42546152257287173  0.7519374508965719  0.8321705352607048  1.0000
  S   S4        1.0  0.9108105944018335  0.26068217685303985  0.6519213093670557  1.0000
  O   O1        1.0  0.9304423335371985  0.7041474810239087  0.25901150998887734  1.0000
  O   O2        1.0  0.38602001176453715  0.3732887021813789  0.1967178738626302  1.0000
  O   O3        1.0  0.07596693754869616  0.326265893969908  0.7041202647900074  1.0000
  O   O4        1.0  0.5856377404027671  0.7903065218561726  0.867298831772518  1.0000
  O   O5        1.0  0.5432553057679647  0.9285752879558946  0.37205025347435566  1.0000
  O   O6        1.0  0.1238175538195362  0.8805612082991116  0.4143698913420607  1.0000
  O   O7        1.0  0.3442053265625817  0.08044539984959614  0.8441715783048336  1.0000
  O   O8        1.0  0.8930423103010933  0.9066970672253402  0.6810298191226839  1.0000
  O   O9        1.0  0.8144411464096883  0.33545282729116277  0.8381685783741639  1.0000
  O   O10       1.0  0.3553704378905907  0.6229275941178325  0.6547371143119839  1.0000
  O   O11       1.0  0.15930748670238842  0.8520138482478383  0.12349955998965492  1.0000
  O   O12       1.0  0.6741310500548182  0.3021597869859353  0.18965726647087855  1.0000
data_image8
_chemical_formula_structural       Cd4S4O12
_chemical_formula_sum              "Cd4 S4 O12"
_cell_length_a       9.025715
_cell_length_b       4.573479000000001
_cell_length_c       7.283293351582442
_cell_angle_alpha    88.92985652425466
_cell_angle_beta     90.0
_cell_angle_gamma    90.0

_space_group_name_H-M_alt    "P 1"
_space_group_IT_number       1

loop_
  _space_group_symop_operation_xyz
  'x, y, z'

loop_
  _atom_site_type_symbol
  _atom_site_label
  _atom_site_symmetry_multiplicity
  _atom_site_fract_x
  _atom_site_fract_y
  _atom_site_fract_z
  _atom_site_occupancy
  Cd  Cd1       1.0  0.7370639112884979  0.8667136448702003  0.5247200877082363  1.0000
  Cd  Cd2       1.0  0.21058529350589042  0.24771127312263921  0.007941362809786596  1.0000
  Cd  Cd3       1.0  0.31000974247565255  0.16165126869663554  0.5319074196305585  1.0000
  Cd  Cd4       1.0  0.7818091805474399  0.7473964603433818  0.988740061550733  1.0000
  S   S1        1.0  0.5185949568387249  0.08565818116365195  0.2267647645574661  1.0000
  S   S2        1.0  0.03567850285115861  0.7048144229585884  0.25149350455336517  1.0000
  S   S3        1.0  0.432061260033955  0.7892360682094517  0.7838862488303365  1.0000
  S   S4        1.0  0.9508245834487568  0.2916480639265912  0.6845050730400686  1.0000
  O   O1        1.0  0.8572079397444468  0.6961985690256315  0.26339522459639686  1.0000
  O   O2        1.0  0.3577239810475777  0.2662228172437516  0.21397586893779375  1.0000
  O   O3        1.0  0.11715784302211835  0.23808636408142655  0.7145959760918456  1.0000
  O   O4        1.0  0.6045264279606903  0.715828339254005  0.7276502264445022  1.0000
  O   O5        1.0  0.5511193987492872  0.14131883654208277  0.4211187931334784  1.0000
  O   O6        1.0  0.10466250816377308  0.9958409555639874  0.29426356391627795  1.0000
  O   O7        1.0  0.42063201748324874  0.1273560152205519  0.7967974357379785  1.0000
  O   O8        1.0  0.9395660497425034  0.9387334866181607  0.6617208382994515  1.0000
  O   O9        1.0  0.8638643210818892  0.34969724910871475  0.8692407293452501  1.0000
  O   O10       1.0  0.36931938756382976  0.6537442607573183  0.6015863047999614  1.0000
  O   O11       1.0  0.054267864528539184  0.6666589396384848  0.03796474633536635  1.0000
  O   O12       1.0  0.620533767172277  0.29516470971248976  0.14027813776898748  1.0000
data_image9
_chemical_formula_structural       Cd4S4O12
_chemical_formula_sum              "Cd4 S4 O12"
_cell_length_a       9.025715
_cell_length_b       4.573479000000001
_cell_length_c       7.283293351582442
_cell_angle_alpha    88.92985652425466
_cell_angle_beta     90.0
_cell_angle_gamma    90.0

_space_group_name_H-M_alt    "P 1"
_space_group_IT_number       1

loop_
  _space_group_symop_operation_xyz
  'x, y, z'

loop_
  _atom_site_type_symbol
  _atom_site_label
  _atom_site_symmetry_multiplicity
  _atom_site_fract_x
  _atom_site_fract_y
  _atom_site_fract_z
  _atom_site_occupancy
  Cd  Cd1       1.0  0.708404641404481  0.915991143109518  0.5466700181616315  1.0000
  Cd  Cd2       1.0  0.21285684500310773  0.18276164882783766  0.0020828814783721223  1.0000
  Cd  Cd3       1.0  0.3082827369592198  0.21693002766035835  0.5045134523168786  1.0000
  Cd  Cd4       1.0  0.7792891249774878  0.6988209081617116  0.9956313849609627  1.0000
  S   S1        1.0  0.5273992310759534  0.18718337386642994  0.17883985114214815  1.0000
  S   S2        1.0  0.08448176162096331  0.7667921289906688  0.2730216006255743  1.0000
  S   S3        1.0  0.43754595462830775  0.6403369867424883  0.7565411737799537  1.0000
  S   S4        1.0  0.9330433017055075  0.2232657847688299  0.7183413882413373  1.0000
  O   O1        1.0  0.9213990102414851  0.9012661499749769  0.2812797906400758  1.0000
  O   O2        1.0  0.357859803874448  0.3635083035796191  0.19122537670800735  1.0000
  O   O3        1.0  0.0946726982531597  0.33519342991321593  0.7293601693714699  1.0000
  O   O4        1.0  0.6037780129916719  0.5996409832647164  0.6986298454856976  1.0000
  O   O5        1.0  0.5614523273987261  0.2201970298694742  0.3860654547570628  1.0000
  O   O6        1.0  0.1506454576485458  0.031088921345052454  0.3411464301242408  1.0000
  O   O7        1.0  0.41349955914237857  0.9542723061095795  0.8220346046633474  1.0000
  O   O8        1.0  0.9087767324175963  0.8240765194736215  0.7144322354079828  1.0000
  O   O9        1.0  0.8752926660930336  0.2348150868072026  0.9285764957367872  1.0000
  O   O10       1.0  0.3343425268317612  0.7095875285016904  0.584731894875457  1.0000
  O   O11       1.0  0.13705347123165112  0.7216060233364346  0.06640465604473743  1.0000
  O   O12       1.0  0.6351210539639222  0.37398310421269576  0.07118576279899892  1.0000
data_image10
_chemical_formula_structural       Cd4S4O12
_chemical_formula_sum              "Cd4 S4 O12"
_cell_length_a       9.025715
_cell_length_b       4.573479000000001
_cell_length_c       7.283293351582442
_cell_angle_alpha    88.92985652425466
_cell_angle_beta     90.0
_cell_angle_gamma    90.0

_space_group_name_H-M_alt    "P 1"
_space_group_IT_number       1

loop_
  _space_group_symop_operation_xyz
  'x, y, z'

loop_
  _atom_site_type_symbol
  _atom_site_label
  _atom_site_symmetry_multiplicity
  _atom_site_fract_x
  _atom_site_fract_y
  _atom_site_fract_z
  _atom_site_occupancy
  Cd  Cd1       1.0  0.7030039483382617  0.96068487823519  0.5347882929842454  1.0000
  Cd  Cd2       1.0  0.21558046582613513  0.1363589856016335  0.05754600711614871  1.0000
  Cd  Cd3       1.0  0.31144781193912213  0.16691624541632055  0.5249340898280702  1.0000
  Cd  Cd4       1.0  0.820194709820904  0.7064775388357031  0.9644563776276157  1.0000
  S   S1        1.0  0.5238378672862195  0.30208482463482833  0.16456594350997825  1.0000
  S   S2        1.0  0.00831999498328811  0.8123264248828097  0.31358109274142176  1.0000
  S   S3        1.0  0.4325502060636818  0.6819132902011212  0.6986506468471085  1.0000
  S   S4        1.0  0.9600912615299276  0.17782106682673748  0.6961656327315587  1.0000
  O   O1        1.0  0.8290990836567629  0.7808869961518242  0.29939947322725136  1.0000
  O   O2        1.0  0.3723509267691676  0.381414200225017  0.2301940179854113  1.0000
  O   O3        1.0  0.13937344467746451  0.13435632621953936  0.7259243098128717  1.0000
  O   O4        1.0  0.6011878041681603  0.6084137610168171  0.6987555442784488  1.0000
  O   O5        1.0  0.5859301497268331  0.15135556974902675  0.3249190249769132  1.0000
  O   O6        1.0  0.06485573960976078  0.1145040623535338  0.3005959711562341  1.0000
  O   O7        1.0  0.4356536765683782  0.0016666430606246336  0.7681731084705177  1.0000
  O   O8        1.0  0.8972311595118151  0.8549200211930105  0.7079825799444245  1.0000
  O   O9        1.0  0.9002276450469769  0.22022355389750956  0.9007796694869515  1.0000
  O   O10       1.0  0.3549596966463445  0.6589615667304735  0.49687564844745596  1.0000
  O   O11       1.0  0.04226100029197749  0.7306989095836413  0.10773479684431572  1.0000
  O   O12       1.0  0.6000058539595386  0.6097988334661119  0.12463366669168752  1.0000
data_image11
_chemical_formula_structural       Cd4S4O12
_chemical_formula_sum              "Cd4 S4 O12"
_cell_length_a       9.025715
_cell_length_b       4.573479000000001
_cell_length_c       7.283293351582442
_cell_angle_alpha    88.92985652425466
_cell_angle_beta     90.0
_cell_angle_gamma    90.0

_space_group_name_H-M_alt    "P 1"
_space_group_IT_number       1

loop_
  _space_group_symop_operation_xyz
  'x, y, z'

loop_
  _atom_site_type_symbol
  _atom_site_label
  _atom_site_symmetry_multiplicity
  _atom_site_fract_x
  _atom_site_fract_y
  _atom_site_fract_z
  _atom_site_occupancy
  Cd  Cd1       1.0  0.6741043508105541  0.8558244244262633  0.5172126719506117  1.0000
  Cd  Cd2       1.0  0.19790455986002237  0.122971467739525  0.030470007574787388  1.0000
  Cd  Cd3       1.0  0.29936323788198727  0.20795856435754942  0.4486734628266432  1.0000
  Cd  Cd4       1.0  0.825197201109024  0.6981267527638002  0.0129015685747631  1.0000
  S   S1        1.0  0.5444452392467919  0.32760228863111923  0.18509714388772336  1.0000
  S   S2        1.0  0.034582770884764864  0.7196794046160309  0.3068008805183269  1.0000
  S   S3        1.0  0.46561603991455935  0.8144718446080068  0.8242762229556791  1.0000
  S   S4        1.0  0.9531592633605663  0.19291064685494647  0.692503934495599  1.0000
  O   O1        1.0  0.8688176215275437  0.7678341109261554  0.27176587757564097  1.0000
  O   O2        1.0  0.36710403909535694  0.3718392095917125  0.17501808948118652  1.0000
  O   O3        1.0  0.14213837199968002  0.27390004105620447  0.7679443415821773  1.0000
  O   O4        1.0  0.634811541492993  0.7115024473117725  0.792258038205802  1.0000
  O   O5        1.0  0.5418314116765572  0.2624959840468606  0.40968960321243636  1.0000
  O   O6        1.0  0.09759180712870856  0.06121625670892968  0.31845090445271423  1.0000
  O   O7        1.0  0.48630054899854525  0.12653842543286584  0.7654274584717946  1.0000
  O   O8        1.0  0.9864792965825177  0.8175992265676514  0.6526691047606118  1.0000
  O   O9        1.0  0.8475123762928374  0.20509616984036047  0.8763601587841271  1.0000
  O   O10       1.0  0.39194493709919154  0.7536179159637798  0.6028788189339003  1.0000
  O   O11       1.0  0.08471845075069301  0.6840955957836297  0.11154278427924888  1.0000
  O   O12       1.0  0.6078957500557277  0.653005696864469  0.19078171661197235  1.0000
data_image12
_chemical_formula_structural       Cd4S4O12
_chemical_formula_sum              "Cd4 S4 O12"
_cell_length_a       9.025715
_cell_length_b       4.573479000000001
_cell_length_c       7.283293351582442
_cell_angle_alpha    88.92985652425466
_cell_angle_beta     90.0
_cell_angle_gamma    90.0

_space_group_name_H-M_alt    "P 1"
_space_group_IT_number       1

loop_
  _space_group_symop_operation_xyz
  'x, y, z'

loop_
  _atom_site_type_symbol
  _atom_site_label
  _atom_site_symmetry_multiplicity
  _atom_site_fract_x
  _atom_site_fract_y
  _atom_site_fract_z
  _atom_site_occupancy
  Cd  Cd1       1.0  0.6915387845721164  0.8167890128257826  0.4972430176743766  1.0000
  Cd  Cd2       1.0  0.21457337431207996  0.12437133884271283  0.9731935018756634  1.0000
  Cd  Cd3       1.0  0.28796157489521534  0.18288258564398774  0.4876482509174577  1.0000
  Cd  Cd4       1.0  0.7841551477233293  0.7679268232657418  0.9805885977631368  1.0000
  S   S1        1.0  0.541544559744101  0.373161063908604  0.22960475858501778  1.0000
  S   S2        1.0  0.08293312110110203  0.7095229872288001  0.3441921993198563  1.0000
  S   S3        1.0  0.4462407354164411  0.8230380500069554  0.7873615561949798  1.0000
  S   S4        1.0  0.956539303507733  0.1534300131994037  0.7363789135354915  1.0000
  O   O1        1.0  0.935673870566038  0.6006963670356347  0.4330882181894449  1.0000
  O   O2        1.0  0.3727911819050777  0.3261474024374109  0.22045433779365012  1.0000
  O   O3        1.0  0.1332510948522589  0.14290314015683273  0.6807026371676081  1.0000
  O   O4        1.0  0.6179793203308713  0.8508581103890333  0.7806419038192978  1.0000
  O   O5        1.0  0.6083297527911974  0.3730718642281514  0.4268079345009141  1.0000
  O   O6        1.0  0.10064584697200854  0.03884350230995457  0.31155278736964903  1.0000
  O   O7        1.0  0.3964755064185866  0.17660342068520796  0.791589397519641  1.0000
  O   O8        1.0  0.9390434105154561  0.847767782094533  0.7315033778196343  1.0000
  O   O9        1.0  0.9602363103826962  0.246365025854458  0.9456379436582438  1.0000
  O   O10       1.0  0.38540663787418183  0.740205347532579  0.6035335333329335  1.0000
  O   O11       1.0  0.0843347312639249  0.5864760583553263  0.1597222345730431  1.0000
  O   O12       1.0  0.5864849830109272  0.7047042697310054  0.16819412857290666  1.0000
data_image13
_chemical_formula_structural       Cd4S4O12
_chemical_formula_sum              "Cd4 S4 O12"
_cell_length_a       9.025715
_cell_length_b       4.573479000000001
_cell_length_c       7.283293351582442
_cell_angle_alpha    88.92985652425466
_cell_angle_beta     90.0
_cell_angle_gamma    90.0

_space_group_name_H-M_alt    "P 1"
_space_group_IT_number       1

loop_
  _space_group_symop_operation_xyz
  'x, y, z'

loop_
  _atom_site_type_symbol
  _atom_site_label
  _atom_site_symmetry_multiplicity
  _atom_site_fract_x
  _atom_site_fract_y
  _atom_site_fract_z
  _atom_site_occupancy
  Cd  Cd1       1.0  0.7499504742261188  0.7889151975763782  0.46371565017394334  1.0000
  Cd  Cd2       1.0  0.16475847777453337  0.23252566464147398  0.07003431543500421  1.0000
  Cd  Cd3       1.0  0.32424416762114167  0.24547604525437772  0.5044684662060428  1.0000
  Cd  Cd4       1.0  0.7763859190748464  0.7914725699564348  0.9963545432963034  1.0000
  S   S1        1.0  0.6077819569534132  0.3199410277291768  0.22533415419780023  1.0000
  S   S2        1.0  0.06646105151740396  0.6266693548975127  0.25538283587851585  1.0000
  S   S3        1.0  0.40239161930442136  0.6447822035000793  0.7475495371392149  1.0000
  S   S4        1.0  0.9305371935133403  0.1703161661495942  0.6873758368286425  1.0000
  O   O1        1.0  0.9084179775663969  0.5590823988436745  0.1928823575187739  1.0000
  O   O2        1.0  0.4164570160497506  0.2604441297601875  0.21961152793309546  1.0000
  O   O3        1.0  0.07782229917133922  0.2723692491497858  0.7824227643373162  1.0000
  O   O4        1.0  0.5726667302610686  0.6697458466082283  0.7207555430135792  1.0000
  O   O5        1.0  0.6822538859444734  0.2492695131598024  0.42915502513998527  1.0000
  O   O6        1.0  0.07413314503890665  0.9447328497146903  0.33724632231962337  1.0000
  O   O7        1.0  0.3671810608577682  0.9172933881753925  0.8509081297309987  1.0000
  O   O8        1.0  0.9000115024762988  0.8418278864217821  0.6844431478319264  1.0000
  O   O9        1.0  0.8299828573375952  0.24540141094560078  0.88486316039546  1.0000
  O   O10       1.0  0.3360872418421992  0.7551827330578063  0.5554155306474363  1.0000
  O   O11       1.0  0.13418718291749346  0.6566840938833081  0.0545704311389323  1.0000
  O   O12       1.0  0.6053616745178785  0.6745332704788511  0.23992016951039735  1.0000
data_image14
_chemical_formula_structural       Cd4S4O12
_chemical_formula_sum              "Cd4 S4 O12"
_cell_length_a       9.025715
_cell_length_b       4.573479000000001
_cell_length_c       7.283293351582442
_cell_angle_alpha    88.92985652425466
_cell_angle_beta     90.0
_cell_angle_gamma    90.0

_space_group_name_H-M_alt    "P 1"
_space_group_IT_number       1

loop_
  _space_group_symop_operation_xyz
  'x, y, z'

loop_
  _atom_site_type_symbol
  _atom_site_label
  _atom_site_symmetry_multiplicity
  _atom_site_fract_x
  _atom_site_fract_y
  _atom_site_fract_z
  _atom_site_occupancy
  Cd  Cd1       1.0  0.7425831503123647  0.7306349998183093  0.46391009180926024  1.0000
  Cd  Cd2       1.0  0.1834210469999469  0.21684100636215967  0.06558528371842659  1.0000
  Cd  Cd3       1.0  0.3917767067321249  0.27105666911763027  0.5342624069457876  1.0000
  Cd  Cd4       1.0  0.7765788271006976  0.7659519071300993  0.9408027238429163  1.0000
  S   S1        1.0  0.5644261421923163  0.21920913370913764  0.20374659614150709  1.0000
  S   S2        1.0  0.025958369219889484  0.6821495549360792  0.24471781649690524  1.0000
  S   S3        1.0  0.4060712121537159  0.7591085221376509  0.7602770934138698  1.0000
  S   S4        1.0  0.8789956131399854  0.28032979497159033  0.730166294402432  1.0000
  O   O1        1.0  0.9244928329618756  0.5328869103311088  0.3998689386256127  1.0000
  O   O2        1.0  0.36964857652886  0.3190279330333229  0.2448189599670097  1.0000
  O   O3        1.0  0.04086856769217282  0.30724372184477255  0.7254779946452703  1.0000
  O   O4        1.0  0.5914677170876506  0.7913682389546739  0.7440179285855334  1.0000
  O   O5        1.0  0.6391089261417195  0.13112601415381797  0.3911811792935213  1.0000
  O   O6        1.0  0.039394399233568446  0.034841961409192664  0.28980318784996834  1.0000
  O   O7        1.0  0.39123856128426693  0.95638823969531  0.9215292932279545  1.0000
  O   O8        1.0  0.8543798914048554  0.9143391083006207  0.6844421769679148  1.0000
  O   O9        1.0  0.7912442434126755  0.2718920435600713  0.9106655010464758  1.0000
  O   O10       1.0  0.34432043134795376  0.7780568620249791  0.5730788499872894  1.0000
  O   O11       1.0  0.9937594089316936  0.6496761776938463  0.04598928180911604  1.0000
  O   O12       1.0  0.6329957744560388  0.5164869755137463  0.1959485793994048  1.0000
data_image15
_chemical_formula_structural       Cd4S4O12
_chemical_formula_sum              "Cd4 S4 O12"
_cell_length_a       9.025715
_cell_length_b       4.573479000000001
_cell_length_c       7.283293351582442
_cell_angle_alpha    88.92985652425466
_cell_angle_beta     90.0
_cell_angle_gamma    90.0

_space_group_name_H-M_alt    "P 1"
_space_group_IT_number       1

loop_
  _space_group_symop_operation_xyz
  'x, y, z'

loop_
  _atom_site_type_symbol
  _atom_site_label
  _atom_site_symmetry_multiplicity
  _atom_site_fract_x
  _atom_site_fract_y
  _atom_site_fract_z
  _atom_site_occupancy
  Cd  Cd1       1.0  0.7225326229645441  0.65892039712499  0.48106205287345555  1.0000
  Cd  Cd2       1.0  0.1699228512244361  0.19361955099307748  0.029525371519731763  1.0000
  Cd  Cd3       1.0  0.44770842626967644  0.3335769599501715  0.5541176572842547  1.0000
  Cd  Cd4       1.0  0.7617906761655423  0.7458032540219888  0.946284315984137  1.0000
  S   S1        1.0  0.5318874129585601  0.3170621046391553  0.1701579564075205  1.0000
  S   S2        1.0  0.052522398147252264  0.6767964190301505  0.22430963974610038  1.0000
  S   S3        1.0  0.4094383801804916  0.6827684069401238  0.8105346807268745  1.0000
  S   S4        1.0  0.8730901745274504  0.26545415949642265  0.7304295500323572  1.0000
  O   O1        1.0  0.9437102379975812  0.5856330355325846  0.34490223556134353  1.0000
  O   O2        1.0  0.36617778446294996  0.38137037612834884  0.2352559179685845  1.0000
  O   O3        1.0  0.027929246560234496  0.3465418778721284  0.8047956742162401  1.0000
  O   O4        1.0  0.5792151613712255  0.8225066598657814  0.7049912247297054  1.0000
  O   O5        1.0  0.5962324653125682  0.16938911925457578  0.3467665922982144  1.0000
  O   O6        1.0  0.1674888445805565  0.8242825655079856  0.33024435812305536  1.0000
  O   O7        1.0  0.37643980082155193  0.929726924655617  0.9291018058446108  1.0000
  O   O8        1.0  0.8827132366195214  0.9642366763107221  0.664043474989985  1.0000
  O   O9        1.0  0.7324185185163834  0.27192353987437284  0.883736614283737  1.0000
  O   O10       1.0  0.2993294108524896  0.750746388323307  0.6145393787978877  1.0000
  O   O11       1.0  0.9677076787859518  0.8950873308149581  0.06878316276197555  1.0000
  O   O12       1.0  0.6317057414862783  0.6309366800703677  0.16996828277375914  1.0000
data_image16
_chemical_formula_structural       Cd4S4O12
_chemical_formula_sum              "Cd4 S4 O12"
_cell_length_a       9.025715
_cell_length_b       4.573479000000001
_cell_length_c       7.283293351582442
_cell_angle_alpha    88.92985652425466
_cell_angle_beta     90.0
_cell_angle_gamma    90.0

_space_group_name_H-M_alt    "P 1"
_space_group_IT_number       1

loop_
  _space_group_symop_operation_xyz
  'x, y, z'

loop_
  _atom_site_type_symbol
  _atom_site_label
  _atom_site_symmetry_multiplicity
  _atom_site_fract_x
  _atom_site_fract_y
  _atom_site_fract_z
  _atom_site_occupancy
  Cd  Cd1       1.0  0.7449119793435837  0.6426483422328996  0.4894857271772458  1.0000
  Cd  Cd2       1.0  0.1746338107847257  0.3388264148893641  0.0006979145794888715  1.0000
  Cd  Cd3       1.0  0.4274621521366886  0.2164347404385788  0.5807814433328257  1.0000
  Cd  Cd4       1.0  0.77974829264261  0.8129827526783947  0.9663973276719003  1.0000
  S   S1        1.0  0.5491893329619603  0.2869142671666372  0.19653734207839652  1.0000
  S   S2        1.0  0.9921737297304891  0.5795897929331708  0.15915395337435703  1.0000
  S   S3        1.0  0.41623005312199457  0.7617895519991574  0.8397629995728424  1.0000
  S   S4        1.0  0.8731967797195223  0.2581375782182108  0.687807634339889  1.0000
  O   O1        1.0  0.88265448807226  0.5418421695587055  0.28500479576872145  1.0000
  O   O2        1.0  0.3947880603903004  0.1729714134381913  0.2715268896427475  1.0000
  O   O3        1.0  0.01815036362810973  0.3879833224800414  0.7653574187692873  1.0000
  O   O4        1.0  0.575808328758661  0.8361130353437107  0.702193708052703  1.0000
  O   O5        1.0  0.6441793322502949  0.22117196337879075  0.3520105216518099  1.0000
  O   O6        1.0  0.1439560711911834  0.5914625309038859  0.248426143651906  1.0000
  O   O7        1.0  0.31890018534012887  0.035402620211184704  0.8408089471659577  1.0000
  O   O8        1.0  0.8716703503469538  0.9433187125001871  0.6987282709298979  1.0000
  O   O9        1.0  0.7643639700664485  0.32197184018071306  0.8411985422480741  1.0000
  O   O10       1.0  0.32896767138232835  0.5728108913718413  0.6913616593208636  1.0000
  O   O11       1.0  0.9838484617165595  0.8924070966148353  0.09683617660789792  1.0000
  O   O12       1.0  0.5487657780024535  0.6126872258013247  0.2249776699720247  1.0000
data_image17
_chemical_formula_structural       Cd4S4O12
_chemical_formula_sum              "Cd4 S4 O12"
_cell_length_a       9.025715
_cell_length_b       4.573479000000001
_cell_length_c       7.283293351582442
_cell_angle_alpha    88.92985652425466
_cell_angle_beta     90.0
_cell_angle_gamma    90.0

_space_group_name_H-M_alt    "P 1"
_space_group_IT_number       1

loop_
  _space_group_symop_operation_xyz
  'x, y, z'

loop_
  _atom_site_type_symbol
  _atom_site_label
  _atom_site_symmetry_multiplicity
  _atom_site_fract_x
  _atom_site_fract_y
  _atom_site_fract_z
  _atom_site_occupancy
  Cd  Cd1       1.0  0.7428352391950672  0.6356245637486009  0.48861143475330715  1.0000
  Cd  Cd2       1.0  0.19339331109262203  0.3940366310431694  0.9489798524602852  1.0000
  Cd  Cd3       1.0  0.38199882615317726  0.15500928958383903  0.5590414986200658  1.0000
  Cd  Cd4       1.0  0.7592837239795531  0.834885544992496  0.9751832076869777  1.0000
  S   S1        1.0  0.5525462544569807  0.2548914655410988  0.23228179560131365  1.0000
  S   S2        1.0  0.02678105988696084  0.586275865417419  0.16738979658015346  1.0000
  S   S3        1.0  0.44264512878482687  0.7366888114731729  0.9108609390723612  1.0000
  S   S4        1.0  0.9076665659533387  0.30233198670002903  0.6639214457865044  1.0000
  O   O1        1.0  0.8567870852690639  0.45900620744519144  0.19306452026258372  1.0000
  O   O2        1.0  0.40098378894029146  0.09882926620416006  0.2706553259880699  1.0000
  O   O3        1.0  0.04959274301963034  0.44998887171650875  0.7161767574964844  1.0000
  O   O4        1.0  0.587629433795218  0.9124737605051056  0.7915749736998662  1.0000
  O   O5        1.0  0.6285726493791335  0.12981730812463632  0.41122303924883313  1.0000
  O   O6        1.0  0.08577207601930982  0.5718113494898638  0.37679280415507105  1.0000
  O   O7        1.0  0.3590095213556537  0.9758209762798771  0.9576427740222084  1.0000
  O   O8        1.0  0.9240213205902152  0.9858194550282254  0.6889193984372913  1.0000
  O   O9        1.0  0.8010235924531478  0.42028134157320474  0.8065881728141224  1.0000
  O   O10       1.0  0.3951432360755211  0.5748743073577673  0.747141333719481  1.0000
  O   O11       1.0  0.9968783322757208  0.877440060231083  0.09447770852013625  1.0000
  O   O12       1.0  0.5410643955128633  0.6158360090264214  0.24771887324409092  1.0000
data_image18
_chemical_formula_structural       Cd4S4O12
_chemical_formula_sum              "Cd4 S4 O12"
_cell_length_a       9.025715
_cell_length_b       4.573479000000001
_cell_length_c       7.283293351582442
_cell_angle_alpha    88.92985652425466
_cell_angle_beta     90.0
_cell_angle_gamma    90.0

_space_group_name_H-M_alt    "P 1"
_space_group_IT_number       1

loop_
  _space_group_symop_operation_xyz
  'x, y, z'

loop_
  _atom_site_type_symbol
  _atom_site_label
  _atom_site_symmetry_multiplicity
  _atom_site_fract_x
  _atom_site_fract_y
  _atom_site_fract_z
  _atom_site_occupancy
  Cd  Cd1       1.0  0.7636277232647881  0.6618313903003772  0.4732328286483714  1.0000
  Cd  Cd2       1.0  0.18322808138129587  0.3458625144658294  0.9708836751678375  1.0000
  Cd  Cd3       1.0  0.31727612162837  0.12930358651267465  0.5704608434237043  1.0000
  Cd  Cd4       1.0  0.8026161009372089  0.8614538559293087  0.9426716159911886  1.0000
  S   S1        1.0  0.5606755618669863  0.25401794230426317  0.26976134731900897  1.0000
  S   S2        1.0  0.043576937921119774  0.7311883342061782  0.21903909203416125  1.0000
  S   S3        1.0  0.44921892312069517  0.7282932380747626  0.8911231765083476  1.0000
  S   S4        1.0  0.904101937909097  0.27440282408827  0.682956626813268  1.0000
  O   O1        1.0  0.8597420680363712  0.5242526351291096  0.20569184270744018  1.0000
  O   O2        1.0  0.37223938263122386  0.1930512397991141  0.27893256014433  1.0000
  O   O3        1.0  0.11313728256565717  0.2828660749316377  0.6703667544727848  1.0000
  O   O4        1.0  0.5460451748458149  0.9686979953983188  0.8327752844933788  1.0000
  O   O5        1.0  0.605335571531196  0.05096122217335575  0.4363526342650206  1.0000
  O   O6        1.0  0.009666021031909203  0.9480831904987599  0.3439326134926319  1.0000
  O   O7        1.0  0.29899191202127595  0.8183868452472349  0.842266976808583  1.0000
  O   O8        1.0  0.8939815854766142  0.9338194480590111  0.6595853717895026  1.0000
  O   O9        1.0  0.862664653284167  0.33841330725989827  0.8838750661878356  1.0000
  O   O10       1.0  0.4674169602768072  0.5037047323525888  0.7158918140023222  1.0000
  O   O11       1.0  0.055806604742749163  0.8621563225689147  0.01963922863815001  1.0000
  O   O12       1.0  0.5519583076696962  0.5439224573379793  0.3244283600992791  1.0000
data_image19
_chemical_formula_structural       Cd4S4O12
_chemical_formula_sum              "Cd4 S4 O12"
_cell_length_a       9.025715
_cell_length_b       4.573479000000001
_cell_length_c       7.283293351582442
_cell_angle_alpha    88.92985652425466
_cell_angle_beta     90.0
_cell_angle_gamma    90.0

_space_group_name_H-M_alt    "P 1"
_space_group_IT_number       1

loop_
  _space_group_symop_operation_xyz
  'x, y, z'

loop_
  _atom_site_type_symbol
  _atom_site_label
  _atom_site_symmetry_multiplicity
  _atom_site_fract_x
  _atom_site_fract_y
  _atom_site_fract_z
  _atom_site_occupancy
  Cd  Cd1       1.0  0.7493122414908857  0.7988114092151057  0.4235382308264806  1.0000
  Cd  Cd2       1.0  0.15438489951057574  0.29075820271451336  0.05224101840131159  1.0000
  Cd  Cd3       1.0  0.33770375176019285  0.06394099086320808  0.5367961713894049  1.0000
  Cd  Cd4       1.0  0.7982312380992977  0.838584704731645  0.9707443268435387  1.0000
  S   S1        1.0  0.5212551306677572  0.251746805341271  0.2418587061384166  1.0000
  S   S2        1.0  0.08299385450983784  0.8483657653265577  0.26132987035595046  1.0000
  S   S3        1.0  0.43265353739159856  0.595743411489042  0.8529183135011983  1.0000
  S   S4        1.0  0.9235442083426482  0.2815636390439934  0.6702863312349973  1.0000
  O   O1        1.0  0.9328245219891865  0.6514005132823464  0.25785215072964424  1.0000
  O   O2        1.0  0.36181898509203275  0.16824266628991136  0.20353284673000105  1.0000
  O   O3        1.0  0.11199008409805061  0.30249321741  0.6939376464131413  1.0000
  O   O4        1.0  0.5823589729916142  0.7751941929250178  0.9082670200304886  1.0000
  O   O5        1.0  0.5719660194541826  0.026498718925628717  0.40646826712267004  1.0000
  O   O6        1.0  0.03650269701641018  0.16038411833851732  0.28379792051151936  1.0000
  O   O7        1.0  0.32069199176532964  0.888330901985019  0.8201239441842978  1.0000
  O   O8        1.0  0.8770561779557348  0.9610828021862772  0.669977145530107  1.0000
  O   O9        1.0  0.8459163460619641  0.3645624173196625  0.8469316779750261  1.0000
  O   O10       1.0  0.5049791152981564  0.3770524913872985  0.6988003656860513  1.0000
  O   O11       1.0  0.11512895903349536  0.8123079009934534  0.022276686903297586  1.0000
  O   O12       1.0  0.562206048158079  0.5600868305076918  0.29852159075042994  1.0000
data_image20
_chemical_formula_structural       Cd4S4O12
_chemical_formula_sum              "Cd4 S4 O12"
_cell_length_a       9.025715
_cell_length_b       4.573479000000001
_cell_length_c       7.283293351582442
_cell_angle_alpha    88.92985652425466
_cell_angle_beta     90.0
_cell_angle_gamma    90.0

_space_group_name_H-M_alt    "P 1"
_space_group_IT_number       1

loop_
  _space_group_symop_operation_xyz
  'x, y, z'

loop_
  _atom_site_type_symbol
  _atom_site_label
  _atom_site_symmetry_multiplicity
  _atom_site_fract_x
  _atom_site_fract_y
  _atom_site_fract_z
  _atom_site_occupancy
  Cd  Cd1       1.0  0.7347840951248839  0.8227189163691975  0.4713228185937821  1.0000
  Cd  Cd2       1.0  0.1656225713430182  0.250855444727123  0.9859448345687637  1.0000
  Cd  Cd3       1.0  0.2843195864464312  0.08828868672958737  0.5513471329483113  1.0000
  Cd  Cd4       1.0  0.8482462668647526  0.7817126580697207  0.9354634473925901  1.0000
  S   S1        1.0  0.5569905143670069  0.28038464750874725  0.3023797656793778  1.0000
  S   S2        1.0  0.06062528202473864  0.671027899025578  0.27464490078525516  1.0000
  S   S3        1.0  0.4417531715263585  0.6912823342578486  0.8444351979533138  1.0000
  S   S4        1.0  0.9218598808668452  0.33162190677839765  0.7009534509360688  1.0000
  O   O1        1.0  0.9064434362494636  0.5531854942737009  0.26689539012408786  1.0000
  O   O2        1.0  0.3782606264306868  0.2989085722867731  0.2980871304753983  1.0000
  O   O3        1.0  0.07415727262488363  0.43471204483100573  0.6873767001128882  1.0000
  O   O4        1.0  0.6104793288787329  0.6818951805752291  0.7864276338608692  1.0000
  O   O5        1.0  0.5610941693459273  0.19485291253247072  0.4989735971807173  1.0000
  O   O6        1.0  0.08120502770372036  0.02190005589646464  0.3299173986607045  1.0000
  O   O7        1.0  0.35086749805783096  0.9982045309920806  0.8833587253557714  1.0000
  O   O8        1.0  0.9051242066638797  0.02021969208686336  0.6068370048677993  1.0000
  O   O9        1.0  0.9103586616245315  0.28499938766328936  0.9178922477098898  1.0000
  O   O10       1.0  0.35611244320406304  0.635762538424435  0.6587676386215652  1.0000
  O   O11       1.0  0.07783043771581077  0.7064274757958254  0.05239368626174179  1.0000
  O   O12       1.0  0.620563588446619  0.556796287504512  0.19901496947486147  1.0000
data_image21
_chemical_formula_structural       Cd4S4O12
_chemical_formula_sum              "Cd4 S4 O12"
_cell_length_a       9.025715
_cell_length_b       4.573479000000001
_cell_length_c       7.283293351582442
_cell_angle_alpha    88.92985652425466
_cell_angle_beta     90.0
_cell_angle_gamma    90.0

_space_group_name_H-M_alt    "P 1"
_space_group_IT_number       1

loop_
  _space_group_symop_operation_xyz
  'x, y, z'

loop_
  _atom_site_type_symbol
  _atom_site_label
  _atom_site_symmetry_multiplicity
  _atom_site_fract_x
  _atom_site_fract_y
  _atom_site_fract_z
  _atom_site_occupancy
  Cd  Cd1       1.0  0.7014572311235447  0.7526491536402102  0.5083658585792247  1.0000
  Cd  Cd2       1.0  0.18447481642839875  0.1518049874619405  0.9896817147413953  1.0000
  Cd  Cd3       1.0  0.2871899985590892  0.16962152179349424  0.5321955688881185  1.0000
  Cd  Cd4       1.0  0.855257541840178  0.7586295207829128  0.9590800305040412  1.0000
  S   S1        1.0  0.53629041819896  0.3951770736363252  0.18812397178845688  1.0000
  S   S2        1.0  0.08549466033708711  0.7082019309328145  0.3044508803487516  1.0000
  S   S3        1.0  0.42818116264252554  0.7475197614323693  0.8060570956691214  1.0000
  S   S4        1.0  0.9141082987550208  0.3129075691255499  0.70328334876523  1.0000
  O   O1        1.0  0.9235429106118048  0.6983766912239396  0.3412350882115377  1.0000
  O   O2        1.0  0.38156509394744537  0.2594381797463046  0.19933231527483333  1.0000
  O   O3        1.0  0.0471032168370387  0.4909005449680822  0.7791679887974963  1.0000
  O   O4        1.0  0.5945116766838294  0.7883775479684171  0.7963906478818296  1.0000
  O   O5        1.0  0.6065783550250757  0.22836275595596667  0.3671767787943139  1.0000
  O   O6        1.0  0.14896531398591414  0.02647997757833671  0.28495004977474675  1.0000
  O   O7        1.0  0.3830362871968513  0.06744355172512596  0.8203277456682476  1.0000
  O   O8        1.0  0.9469363883042761  0.027869418354125042  0.6111954096399392  1.0000
  O   O9        1.0  0.8276436417527925  0.2186289051438211  0.8777558715095388  1.0000
  O   O10       1.0  0.3850010203418789  0.6890573646638214  0.6309240794952407  1.0000
  O   O11       1.0  0.14208516991657713  0.612661166004131  0.13459164340116306  1.0000
  O   O12       1.0  0.508029181805037  0.6810906156984761  0.2697835290900751  1.0000
data_image22
_chemical_formula_structural       Cd4S4O12
_chemical_formula_sum              "Cd4 S4 O12"
_cell_length_a       9.025715
_cell_length_b       4.573479000000001
_cell_length_c       7.283293351582442
_cell_angle_alpha    88.92985652425466
_cell_angle_beta     90.0
_cell_angle_gamma    90.0

_space_group_name_H-M_alt    "P 1"
_space_group_IT_number       1

loop_
  _space_group_symop_operation_xyz
  'x, y, z'

loop_
  _atom_site_type_symbol
  _atom_site_label
  _atom_site_symmetry_multiplicity
  _atom_site_fract_x
  _atom_site_fract_y
  _atom_site_fract_z
  _atom_site_occupancy
  Cd  Cd1       1.0  0.684943524239978  0.7356581456880218  0.49140434689191054  1.0000
  Cd  Cd2       1.0  0.19662057752632636  0.12475293097759768  0.02114392735641957  1.0000
  Cd  Cd3       1.0  0.3313031885848903  0.24188503623512358  0.5056617702246706  1.0000
  Cd  Cd4       1.0  0.8466406351197352  0.7611198851082479  0.9699540888111077  1.0000
  S   S1        1.0  0.5763686288657551  0.2854389682168788  0.19406177428994184  1.0000
  S   S2        1.0  0.053575089629833025  0.7561524530960588  0.3330141297273935  1.0000
  S   S3        1.0  0.4183971458065792  0.7114535203664266  0.7950035233634015  1.0000
  S   S4        1.0  0.9085793833333263  0.2960678427458511  0.7060541739588426  1.0000
  O   O1        1.0  0.8947714913101099  0.8454342538587142  0.24565492361561853  1.0000
  O   O2        1.0  0.4002550586830378  0.20174073568113646  0.19872588168386054  1.0000
  O   O3        1.0  0.059642099760479385  0.33179414345836034  0.7910735733699936  1.0000
  O   O4        1.0  0.5986968363423055  0.719090764921455  0.7836284927707116  1.0000
  O   O5        1.0  0.6228142904426417  0.26615250220738784  0.4010512311459517  1.0000
  O   O6        1.0  0.08589038740966244  0.09180541889293797  0.3489461858844834  1.0000
  O   O7        1.0  0.400060515438232  0.04132792686601812  0.8700274477367469  1.0000
  O   O8        1.0  0.8842581559433571  0.9260726440828424  0.6971937820585744  1.0000
  O   O9        1.0  0.7795843855651654  0.3787033366525342  0.8413701180489181  1.0000
  O   O10       1.0  0.3356142234902096  0.7163514205841162  0.5779307109312202  1.0000
  O   O11       1.0  0.11006163939830818  0.6729059504308007  0.12148657222214455  1.0000
  O   O12       1.0  0.5328036178121934  0.6201019053015281  0.1911811305748736  1.0000
data_image23
_chemical_formula_structural       Cd4S4O12
_chemical_formula_sum              "Cd4 S4 O12"
_cell_length_a       9.025715
_cell_length_b       4.573479000000001
_cell_length_c       7.283293351582442
_cell_angle_alpha    88.92985652425466
_cell_angle_beta     90.0
_cell_angle_gamma    90.0

_space_group_name_H-M_alt    "P 1"
_space_group_IT_number       1

loop_
  _space_group_symop_operation_xyz
  'x, y, z'

loop_
  _atom_site_type_symbol
  _atom_site_label
  _atom_site_symmetry_multiplicity
  _atom_site_fract_x
  _atom_site_fract_y
  _atom_site_fract_z
  _atom_site_occupancy
  Cd  Cd1       1.0  0.7007670261448175  0.7093698616618298  0.5058154156116482  1.0000
  Cd  Cd2       1.0  0.1908454959090848  0.1835716077084994  0.030480961928125334  1.0000
  Cd  Cd3       1.0  0.34530297256059683  0.235610209062282  0.49926296315942276  1.0000
  Cd  Cd4       1.0  0.8019834021828683  0.7938002506669487  0.9882630164646048  1.0000
  S   S1        1.0  0.5695356339293184  0.2068028320793388  0.225310118266993  1.0000
  S   S2        1.0  0.009015993757775259  0.8023082228594194  0.31440592387715244  1.0000
  S   S3        1.0  0.43689670615180143  0.7164335200956276  0.7666969734642519  1.0000
  S   S4        1.0  0.9184576731994729  0.20065844477717992  0.6828941904437148  1.0000
  O   O1        1.0  0.8477378615540619  0.9679900545999911  0.3149268971824677  1.0000
  O   O2        1.0  0.41361903871028843  0.3475478715204997  0.1429754145455593  1.0000
  O   O3        1.0  0.06551005954093302  0.2727093745856291  0.7746947958419029  1.0000
  O   O4        1.0  0.6004648610215723  0.8083239897590764  0.7593933942000409  1.0000
  O   O5        1.0  0.5833179999739652  0.21872407370496627  0.4436807574444522  1.0000
  O   O6        1.0  0.15769351186558772  0.9701955894216928  0.33029746716992836  1.0000
  O   O7        1.0  0.3510229992098503  0.9793413335766612  0.7805950065384247  1.0000
  O   O8        1.0  0.9109249292445006  0.8566384307772892  0.7258861999193631  1.0000
  O   O9        1.0  0.7813507401276476  0.29918877378249825  0.8120908681847979  1.0000
  O   O10       1.0  0.44444047904077433  0.6917434171239134  0.5435147188248158  1.0000
  O   O11       1.0  0.06764383819644837  0.6883951287741873  0.08015522403808913  1.0000
  O   O12       1.0  0.6717358221339603  0.5281577060373156  0.18253108144301597  1.0000
data_image24
_chemical_formula_structural       Cd4S4O12
_chemical_formula_sum              "Cd4 S4 O12"
_cell_length_a       9.025715
_cell_length_b       4.573479000000001
_cell_length_c       7.283293351582442
_cell_angle_alpha    88.92985652425466
_cell_angle_beta     90.0
_cell_angle_gamma    90.0

_space_group_name_H-M_alt    "P 1"
_space_group_IT_number       1

loop_
  _space_group_symop_operation_xyz
  'x, y, z'

loop_
  _atom_site_type_symbol
  _atom_site_label
  _atom_site_symmetry_multiplicity
  _atom_site_fract_x
  _atom_site_fract_y
  _atom_site_fract_z
  _atom_site_occupancy
  Cd  Cd1       1.0  0.7063618455231105  0.7171383374859583  0.5000546856355311  1.0000
  Cd  Cd2       1.0  0.2246484287293221  0.308120226000081  0.03655757888203781  1.0000
  Cd  Cd3       1.0  0.33581449134245134  0.153628378652898  0.5115139012157365  1.0000
  Cd  Cd4       1.0  0.8026005252448787  0.7204178312341672  0.9939294325989  1.0000
  S   S1        1.0  0.5385956497302504  0.216242869607455  0.1763932813983696  1.0000
  S   S2        1.0  0.04522434813897455  0.7661668848304924  0.3156790245034428  1.0000
  S   S3        1.0  0.4150025899259342  0.7541136243512523  0.8089860915893387  1.0000
  S   S4        1.0  0.9015628823782202  0.25867675718982946  0.6524169287899404  1.0000
  O   O1        1.0  0.8669781267969945  0.8013689630915042  0.2781801722918208  1.0000
  O   O2        1.0  0.3789635187219443  0.3427186819770627  0.26694420414541076  1.0000
  O   O3        1.0  0.0649892593513756  0.38603255600213104  0.6742890930009096  1.0000
  O   O4        1.0  0.5915557901783693  0.8612351642718172  0.8099192705555432  1.0000
  O   O5        1.0  0.5765573039410854  0.04913352478430144  0.33912445251694406  1.0000
  O   O6        1.0  0.13123608870177922  0.04459856996303504  0.258128338069815  1.0000
  O   O7        1.0  0.3476863019811127  0.05854673952123592  0.8364869125294753  1.0000
  O   O8        1.0  0.9044593814732044  0.9433597520815878  0.6643619501540838  1.0000
  O   O9        1.0  0.7880114096015428  0.3835559924522404  0.8014768606494735  1.0000
  O   O10       1.0  0.4018442151053223  0.689513784981167  0.6141880945986848  1.0000
  O   O11       1.0  0.062441944232443855  0.5825023344163817  0.12030463101332667  1.0000
  O   O12       1.0  0.6324905521456174  0.4835844692125053  0.1827779005239439  1.0000
data_image25
_chemical_formula_structural       Cd4S4O12
_chemical_formula_sum              "Cd4 S4 O12"
_cell_length_a       9.025715
_cell_length_b       4.573479000000001
_cell_length_c       7.283293351582442
_cell_angle_alpha    88.92985652425466
_cell_angle_beta     90.0
_cell_angle_gamma    90.0

_space_group_name_H-M_alt    "P 1"
_space_group_IT_number       1

loop_
  _space_group_symop_operation_xyz
  'x, y, z'

loop_
  _atom_site_type_symbol
  _atom_site_label
  _atom_site_symmetry_multiplicity
  _atom_site_fract_x
  _atom_site_fract_y
  _atom_site_fract_z
  _atom_site_occupancy
  Cd  Cd1       1.0  0.6916629565583374  0.6917346697726824  0.5314568933003375  1.0000
  Cd  Cd2       1.0  0.21040713951042347  0.37116811537590455  0.002497479807976162  1.0000
  Cd  Cd3       1.0  0.31116250535190865  0.09325161215233004  0.5252278247730618  1.0000
  Cd  Cd4       1.0  0.8310260928095303  0.6873475251284714  0.9585233975372079  1.0000
  S   S1        1.0  0.5995985915953443  0.23446346477148408  0.2635595329209085  1.0000
  S   S2        1.0  0.017671306953954233  0.7798126444015808  0.24684349837360878  1.0000
  S   S3        1.0  0.4522125252844852  0.7402532022750526  0.8197099989644595  1.0000
  S   S4        1.0  0.8892844332897089  0.28707852984680443  0.6726557888375571  1.0000
  O   O1        1.0  0.8865498634769612  0.02947336988047966  0.17620177547398091  1.0000
  O   O2        1.0  0.4193231736592312  0.32420758015756174  0.22380926768767528  1.0000
  O   O3        1.0  0.030993298461786008  0.443142856879447  0.7148846142743109  1.0000
  O   O4        1.0  0.6121273196853778  0.898604966682893  0.7983691801080269  1.0000
  O   O5        1.0  0.5731260747026086  0.1603814841362312  0.48353938189481876  1.0000
  O   O6        1.0  0.12703076289139553  0.02119057413089308  0.30026829955852424  1.0000
  O   O7        1.0  0.2996895265683911  0.027956559288787833  0.8108893804373952  1.0000
  O   O8        1.0  0.8977936416163068  0.971677224132674  0.6201539793228893  1.0000
  O   O9        1.0  0.8357346384261638  0.2427212931298969  0.8623132612208584  1.0000
  O   O10       1.0  0.3834959455465838  0.6141668549356146  0.6254219611089151  1.0000
  O   O11       1.0  0.05093168051199536  0.6944294862036401  0.04997664499238399  1.0000
  O   O12       1.0  0.6963561144369094  0.5123880572214243  0.2517191307282067  1.0000
data_image26
_chemical_formula_structural       Cd4S4O12
_chemical_formula_sum              "Cd4 S4 O12"
_cell_length_a       9.025715
_cell_length_b       4.573479000000001
_cell_length_c       7.283293351582442
_cell_angle_alpha    88.92985652425466
_cell_angle_beta     90.0
_cell_angle_gamma    90.0

_space_group_name_H-M_alt    "P 1"
_space_group_IT_number       1

loop_
  _space_group_symop_operation_xyz
  'x, y, z'

loop_
  _atom_site_type_symbol
  _atom_site_label
  _atom_site_symmetry_multiplicity
  _atom_site_fract_x
  _atom_site_fract_y
  _atom_site_fract_z
  _atom_site_occupancy
  Cd  Cd1       1.0  0.6699218848245989  0.7131260471465037  0.5655037657489539  1.0000
  Cd  Cd2       1.0  0.25802774939895223  0.39455086097750913  0.9898039073415094  1.0000
  Cd  Cd3       1.0  0.2736190605410252  0.07394032292131383  0.48532308387728146  1.0000
  Cd  Cd4       1.0  0.8046892029700146  0.6799291054525117  0.005663790471778896  1.0000
  S   S1        1.0  0.574676989774585  0.2783200206864006  0.24220812257589708  1.0000
  S   S2        1.0  0.05833497931228859  0.8245800072048234  0.22072037543939452  1.0000
  S   S3        1.0  0.3900192098897639  0.7974690980059637  0.8079875692057302  1.0000
  S   S4        1.0  0.9384797657750914  0.1710205010209578  0.604842326949926  1.0000
  O   O1        1.0  0.9175786512475099  0.9458838650455165  0.25114958924077124  1.0000
  O   O2        1.0  0.4275974258503723  0.4030961765979111  0.296261495598046  1.0000
  O   O3        1.0  0.11946802662515843  0.1764952239560163  0.6767491734391228  1.0000
  O   O4        1.0  0.5431463851025762  0.7082352135466019  0.9190955268665948  1.0000
  O   O5        1.0  0.6427428261395852  0.15166607626995643  0.432220984376201  1.0000
  O   O6        1.0  0.1375292061404722  0.1230469887306673  0.20537898524651238  1.0000
  O   O7        1.0  0.38542731548654807  0.12818530122312524  0.8332069287426572  1.0000
  O   O8        1.0  0.8741847042087729  0.8523268865915636  0.6631611038163558  1.0000
  O   O9        1.0  0.8792659158278795  0.3460997309670738  0.7802804058101346  1.0000
  O   O10       1.0  0.4291189275494492  0.7229377943791806  0.5938604732306437  1.0000
  O   O11       1.0  0.04454905922609432  0.6611030583658076  0.05130879611561591  1.0000
  O   O12       1.0  0.6695190503482094  0.5426143942540901  0.2552564035501307  1.0000
data_image27
_chemical_formula_structural       Cd4S4O12
_chemical_formula_sum              "Cd4 S4 O12"
_cell_length_a       9.025715
_cell_length_b       4.573479000000001
_cell_length_c       7.283293351582442
_cell_angle_alpha    88.92985652425466
_cell_angle_beta     90.0
_cell_angle_gamma    90.0

_space_group_name_H-M_alt    "P 1"
_space_group_IT_number       1

loop_
  _space_group_symop_operation_xyz
  'x, y, z'

loop_
  _atom_site_type_symbol
  _atom_site_label
  _atom_site_symmetry_multiplicity
  _atom_site_fract_x
  _atom_site_fract_y
  _atom_site_fract_z
  _atom_site_occupancy
  Cd  Cd1       1.0  0.6165910984160553  0.7321776238632273  0.5845438390554389  1.0000
  Cd  Cd2       1.0  0.27429444079316134  0.35429096488194967  0.9745256981344493  1.0000
  Cd  Cd3       1.0  0.2763713163634702  0.14010344569023817  0.44694997371147593  1.0000
  Cd  Cd4       1.0  0.7953074232907618  0.6830936286861617  0.006638933814433479  1.0000
  S   S1        1.0  0.6488231661778234  0.3123648520224445  0.271954684224024  1.0000
  S   S2        1.0  0.06424398266186915  0.7691591147011254  0.2181952914077989  1.0000
  S   S3        1.0  0.4257461848958663  0.934032146073172  0.827363658023554  1.0000
  S   S4        1.0  0.9012761546618657  0.10369591685079667  0.6851826393326016  1.0000
  O   O1        1.0  0.9523719890978255  0.008170856765076895  0.16733929541856316  1.0000
  O   O2        1.0  0.4749002487035755  0.284120212391844  0.2532861995731104  1.0000
  O   O3        1.0  0.07371176670075853  0.205497676853881  0.7371564293215466  1.0000
  O   O4        1.0  0.49560983942765635  0.6471210419252019  0.893729063294164  1.0000
  O   O5        1.0  0.6850588266750107  0.2278622521590814  0.44664116532019443  1.0000
  O   O6        1.0  0.22041726891124747  0.8581278292297227  0.17529164405325817  1.0000
  O   O7        1.0  0.5491720689432257  0.10479058704054493  0.6956647832480641  1.0000
  O   O8        1.0  0.8819802830196861  0.7798062029559554  0.705911703191623  1.0000
  O   O9        1.0  0.8053287718762565  0.27666085603918444  0.8621000353678702  1.0000
  O   O10       1.0  0.33235990827088946  0.7765735207847212  0.6626846327090486  1.0000
  O   O11       1.0  0.055251164308922886  0.5075973849885359  0.06818842857292526  1.0000
  O   O12       1.0  0.6918869362296874  0.6669353023168922  0.2739960175125033  1.0000
data_image28
_chemical_formula_structural       Cd4S4O12
_chemical_formula_sum              "Cd4 S4 O12"
_cell_length_a       9.025715
_cell_length_b       4.573479000000001
_cell_length_c       7.283293351582442
_cell_angle_alpha    88.92985652425466
_cell_angle_beta     90.0
_cell_angle_gamma    90.0

_space_group_name_H-M_alt    "P 1"
_space_group_IT_number       1

loop_
  _space_group_symop_operation_xyz
  'x, y, z'

loop_
  _atom_site_type_symbol
  _atom_site_label
  _atom_site_symmetry_multiplicity
  _atom_site_fract_x
  _atom_site_fract_y
  _atom_site_fract_z
  _atom_site_occupancy
  Cd  Cd1       1.0  0.6432804631787263  0.6736029296296199  0.5716819691682927  1.0000
  Cd  Cd2       1.0  0.2587608415108741  0.30390414876579436  0.9765755531470562  1.0000
  Cd  Cd3       1.0  0.28328201834496797  0.25373314107614386  0.46703302037789646  1.0000
  Cd  Cd4       1.0  0.7567875200901752  0.5931141349475891  0.9573918994680376  1.0000
  S   S1        1.0  0.601224405401446  0.39100031696128396  0.263185598700452  1.0000
  S   S2        1.0  0.08932010965298243  0.7889792498953431  0.28133689173553894  1.0000
  S   S3        1.0  0.4179093566160201  0.9203337700347104  0.7913987396728382  1.0000
  S   S4        1.0  0.9603709888132351  0.10822312611744289  0.6816550333090696  1.0000
  O   O1        1.0  0.9430428781676199  0.9269729776096484  0.32090407966859136  1.0000
  O   O2        1.0  0.4450938338454198  0.4327619127668984  0.3219066155766764  1.0000
  O   O3        1.0  0.11164050067573868  0.24085595618071054  0.7295464383354906  1.0000
  O   O4        1.0  0.46786916041261345  0.6853550253335257  0.9282905739611007  1.0000
  O   O5        1.0  0.6941943463685507  0.2838087275817007  0.4033458031172988  1.0000
  O   O6        1.0  0.23787922490622251  0.9838433162640998  0.20653787325961842  1.0000
  O   O7        1.0  0.546657051350845  0.14412065582425312  0.7453121900526632  1.0000
  O   O8        1.0  0.930013151360464  0.7723725503727142  0.6931111495155327  1.0000
  O   O9        1.0  0.8486940445806191  0.19013693497277487  0.8916899267711776  1.0000
  O   O10       1.0  0.3456462705954599  0.7809609482418176  0.6163646279120436  1.0000
  O   O11       1.0  0.06547949778829824  0.6013066806485264  0.10954745889099797  1.0000
  O   O12       1.0  0.6594613347332126  0.7087550299537262  0.221909815565066  1.0000
data_image29
_chemical_formula_structural       Cd4S4O12
_chemical_formula_sum              "Cd4 S4 O12"
_cell_length_a       9.025715
_cell_length_b       4.573479000000001
_cell_length_c       7.283293351582442
_cell_angle_alpha    88.92985652425466
_cell_angle_beta     90.0
_cell_angle_gamma    90.0

_space_group_name_H-M_alt    "P 1"
_space_group_IT_number       1

loop_
  _space_group_symop_operation_xyz
  'x, y, z'

loop_
  _atom_site_type_symbol
  _atom_site_label
  _atom_site_symmetry_multiplicity
  _atom_site_fract_x
  _atom_site_fract_y
  _atom_site_fract_z
  _atom_site_occupancy
  Cd  Cd1       1.0  0.7078525908067523  0.6963139869978757  0.5597719811507602  1.0000
  Cd  Cd2       1.0  0.22187497308958692  0.2828603184408922  0.9874414093987172  1.0000
  Cd  Cd3       1.0  0.24933911951522414  0.35998844124692986  0.5022398047506689  1.0000
  Cd  Cd4       1.0  0.7857354741846775  0.5770755993151421  0.9335137332367786  1.0000
  S   S1        1.0  0.5658233431831261  0.38796163334637224  0.211202993807706  1.0000
  S   S2        1.0  0.10351225670921642  0.712952043748371  0.28523430621101215  1.0000
  S   S3        1.0  0.4163714284684818  0.8448510693308929  0.7881543276537155  1.0000
  S   S4        1.0  0.9407421743524728  0.13195595626834247  0.7555191782997253  1.0000
  O   O1        1.0  0.9582484053848819  0.7382014450879685  0.3618034589070659  1.0000
  O   O2        1.0  0.41557500028709304  0.47792994695629176  0.24896633831799345  1.0000
  O   O3        1.0  0.1008134516233218  0.147464844931737  0.70751164863666  1.0000
  O   O4        1.0  0.3946204489293247  0.5090628113939842  0.7974743108429552  1.0000
  O   O5        1.0  0.6364444539871007  0.3073948262549122  0.4147727183463748  1.0000
  O   O6        1.0  0.175691643753794  0.06477240480696926  0.2716311325173101  1.0000
  O   O7        1.0  0.5809107399593937  0.8940654248808155  0.7909652186094676  1.0000
  O   O8        1.0  0.9460677953028638  0.7552637864125812  0.7112909006042514  1.0000
  O   O9        1.0  0.9011974839599458  0.13976290989984674  0.962737307893559  1.0000
  O   O10       1.0  0.39596087107909556  0.9875085125397649  0.5873527144172687  1.0000
  O   O11       1.0  0.07117479379588208  0.6363813055434443  0.07556313342218299  1.0000
  O   O12       1.0  0.6443133316907415  0.680639985115752  0.14633788833688277  1.0000
data_image30
_chemical_formula_structural       Cd4S4O12
_chemical_formula_sum              "Cd4 S4 O12"
_cell_length_a       9.025715
_cell_length_b       4.573479000000001
_cell_length_c       7.283293351582442
_cell_angle_alpha    88.92985652425466
_cell_angle_beta     90.0
_cell_angle_gamma    90.0

_space_group_name_H-M_alt    "P 1"
_space_group_IT_number       1

loop_
  _space_group_symop_operation_xyz
  'x, y, z'

loop_
  _atom_site_type_symbol
  _atom_site_label
  _atom_site_symmetry_multiplicity
  _atom_site_fract_x
  _atom_site_fract_y
  _atom_site_fract_z
  _atom_site_occupancy
  Cd  Cd1       1.0  0.7649171180481591  0.6450862516660546  0.503338128280181  1.0000
  Cd  Cd2       1.0  0.21940645530632613  0.21168012045644785  0.010606495821292895  1.0000
  Cd  Cd3       1.0  0.23649807869126932  0.4089017727806981  0.5103530949554245  1.0000
  Cd  Cd4       1.0  0.7850594985443861  0.6992172698899745  0.0054221825989759775  1.0000
  S   S1        1.0  0.5791575424098983  0.2736170169452411  0.28323187685961376  1.0000
  S   S2        1.0  0.06335488297681806  0.7701124796751838  0.23671483348862576  1.0000
  S   S3        1.0  0.4097427769436066  0.8503671230637009  0.744906136379402  1.0000
  S   S4        1.0  0.9417679548096272  0.14845697551993572  0.6955337672037516  1.0000
  O   O1        1.0  0.8928588602489548  0.8123313378204146  0.25425064729813535  1.0000
  O   O2        1.0  0.41461224777987915  0.2583168208304162  0.22759369967232657  1.0000
  O   O3        1.0  0.11244468710841365  0.1410733732972514  0.7209703163668546  1.0000
  O   O4        1.0  0.3525574211371828  0.5111770149746917  0.7811487506000375  1.0000
  O   O5        1.0  0.6042834181396983  0.2705067933172296  0.4814260911439896  1.0000
  O   O6        1.0  0.10421622344011212  0.10516035045985245  0.3078246822707226  1.0000
  O   O7        1.0  0.5901053891962981  0.7821363022944252  0.758581445714086  1.0000
  O   O8        1.0  0.90404760464035  0.8105332637636369  0.7092704114569381  1.0000
  O   O9        1.0  0.8651036356798173  0.23377262381696498  0.8855966892348055  1.0000
  O   O10       1.0  0.3844140978591535  0.8583275598495858  0.5345187061494553  1.0000
  O   O11       1.0  0.1381506796009272  0.7365346762726243  0.042108727169106824  1.0000
  O   O12       1.0  0.6299092575683676  0.5460333565182689  0.19815286237882926  1.0000
data_image31
_chemical_formula_structural       Cd4S4O12
_chemical_formula_sum              "Cd4 S4 O12"
_cell_length_a       9.025715
_cell_length_b       4.573479000000001
_cell_length_c       7.283293351582442
_cell_angle_alpha    88.92985652425466
_cell_angle_beta     90.0
_cell_angle_gamma    90.0

_space_group_name_H-M_alt    "P 1"
_space_group_IT_number       1

loop_
  _space_group_symop_operation_xyz
  'x, y, z'

loop_
  _atom_site_type_symbol
  _atom_site_label
  _atom_site_symmetry_multiplicity
  _atom_site_fract_x
  _atom_site_fract_y
  _atom_site_fract_z
  _atom_site_occupancy
  Cd  Cd1       1.0  0.7421787185571422  0.5638083789448248  0.48612757832013226  1.0000
  Cd  Cd2       1.0  0.23117794245403822  0.1962467572039914  0.001427034338614282  1.0000
  Cd  Cd3       1.0  0.2498943407813621  0.4160194293069376  0.5380670160921379  1.0000
  Cd  Cd4       1.0  0.7735202385019612  0.7774980823769188  0.9647834548721198  1.0000
  S   S1        1.0  0.6219123298134014  0.13892413689958868  0.21938551560166866  1.0000
  S   S2        1.0  0.10319494847698017  0.8781389503947462  0.3093643131181887  1.0000
  S   S3        1.0  0.4129436537919124  0.8009574320709678  0.7970833548884801  1.0000
  S   S4        1.0  0.883339516060458  0.22227045939199772  0.6972226331302489  1.0000
  O   O1        1.0  0.9341425013722228  0.793049353381433  0.2692663663134259  1.0000
  O   O2        1.0  0.4612083128518081  0.22803532180409042  0.21917288217827835  1.0000
  O   O3        1.0  0.046227855205331535  0.26638865635056413  0.7486517152343511  1.0000
  O   O4        1.0  0.31653308368295213  0.5110399442267809  0.8147725288270982  1.0000
  O   O5        1.0  0.6659469342702675  0.06977723673978997  0.4210544740070379  1.0000
  O   O6        1.0  0.11284838836841948  0.2220994589785151  0.3063110496423946  1.0000
  O   O7        1.0  0.5612271473588837  0.6772595599880851  0.7750842237655959  1.0000
  O   O8        1.0  0.8845185184023705  0.8686495101023223  0.67677774035555  1.0000
  O   O9        1.0  0.8151021404059557  0.27743412035391973  0.8767737912198037  1.0000
  O   O10       1.0  0.3484164900881209  0.9725118657738381  0.6112829993361865  1.0000
  O   O11       1.0  0.17212268508351294  0.8156862234996444  0.12159237220219332  1.0000
  O   O12       1.0  0.687013238937267  0.44944723937586645  0.2098386330266825  1.0000
data_image32
_chemical_formula_structural       Cd4S4O12
_chemical_formula_sum              "Cd4 S4 O12"
_cell_length_a       9.025715
_cell_length_b       4.573479000000001
_cell_length_c       7.283293351582442
_cell_angle_alpha    88.92985652425466
_cell_angle_beta     90.0
_cell_angle_gamma    90.0

_space_group_name_H-M_alt    "P 1"
_space_group_IT_number       1

loop_
  _space_group_symop_operation_xyz
  'x, y, z'

loop_
  _atom_site_type_symbol
  _atom_site_label
  _atom_site_symmetry_multiplicity
  _atom_site_fract_x
  _atom_site_fract_y
  _atom_site_fract_z
  _atom_site_occupancy
  Cd  Cd1       1.0  0.7133417528312737  0.5505903564549558  0.4817804687966908  1.0000
  Cd  Cd2       1.0  0.23214938283757283  0.2936170724370084  0.014581037113704348  1.0000
  Cd  Cd3       1.0  0.2585974788051776  0.3192938602882046  0.4826199652596523  1.0000
  Cd  Cd4       1.0  0.7977073453290195  0.738961693622409  0.0022655612088484656  1.0000
  S   S1        1.0  0.5812149164895942  0.18753658913462176  0.19723387095594144  1.0000
  S   S2        1.0  0.06674120649408916  0.8529536527183891  0.35065229394226394  1.0000
  S   S3        1.0  0.43181750631552085  0.8667007175899443  0.7636634224669105  1.0000
  S   S4        1.0  0.9140227016525241  0.21972499671139945  0.710607056098204  1.0000
  O   O1        1.0  0.9087562999957608  0.8290568707873804  0.2837135060443026  1.0000
  O   O2        1.0  0.431930334838292  0.33697513916942  0.20030640860286447  1.0000
  O   O3        1.0  0.07885440278270951  0.33673600608783766  0.7375331108649924  1.0000
  O   O4        1.0  0.36689020781093906  0.587333871116805  0.8618361105538632  1.0000
  O   O5        1.0  0.6107927705180517  0.9929003744510638  0.35590684295743785  1.0000
  O   O6        1.0  0.05672231075450895  0.22785092669416135  0.3038931101166274  1.0000
  O   O7        1.0  0.6037842371311062  0.7933316249273834  0.7656993496243754  1.0000
  O   O8        1.0  0.899878643827571  0.8903632487775136  0.7469047678187208  1.0000
  O   O9        1.0  0.8086094774480255  0.3174133827939734  0.8766332086429363  1.0000
  O   O10       1.0  0.3550717504605447  0.8474661031051334  0.5658810203384813  1.0000
  O   O11       1.0  0.18531367787247055  0.7513716455305506  0.2074964344885137  1.0000
  O   O12       1.0  0.7095266825934466  0.44094785536946185  0.20403582406955978  1.0000
data_image33
_chemical_formula_structural       Cd4S4O12
_chemical_formula_sum              "Cd4 S4 O12"
_cell_length_a       9.025715
_cell_length_b       4.573479000000001
_cell_length_c       7.283293351582442
_cell_angle_alpha    88.92985652425466
_cell_angle_beta     90.0
_cell_angle_gamma    90.0

_space_group_name_H-M_alt    "P 1"
_space_group_IT_number       1

loop_
  _space_group_symop_operation_xyz
  'x, y, z'

loop_
  _atom_site_type_symbol
  _atom_site_label
  _atom_site_symmetry_multiplicity
  _atom_site_fract_x
  _atom_site_fract_y
  _atom_site_fract_z
  _atom_site_occupancy
  Cd  Cd1       1.0  0.6900402146317585  0.6307790413894059  0.47940712047832756  1.0000
  Cd  Cd2       1.0  0.22175449497139627  0.3715258854234465  0.006932286175501705  1.0000
  Cd  Cd3       1.0  0.279893258089365  0.2612766616075209  0.4943410273065445  1.0000
  Cd  Cd4       1.0  0.7978537349660768  0.7354476505980589  0.9882020553692102  1.0000
  S   S1        1.0  0.5497503385300959  0.066130451588848  0.241245332944333  1.0000
  S   S2        1.0  0.03670957274022042  0.7671278339745448  0.3203621577863066  1.0000
  S   S3        1.0  0.435798679965598  0.89180690345088  0.7289975379152162  1.0000
  S   S4        1.0  0.944009268927972  0.1923521300436583  0.7246822201121763  1.0000
  O   O1        1.0  0.8743636432974919  0.7695481337617155  0.250947982009211  1.0000
  O   O2        1.0  0.4088515779571057  0.23399867252802994  0.2548402154914302  1.0000
  O   O3        1.0  0.1415759007009081  0.17617381506697444  0.7521692130934455  1.0000
  O   O4        1.0  0.4180077586214496  0.6779452888048592  0.8906866972920827  1.0000
  O   O5        1.0  0.6296915745745898  0.10273504016150259  0.4487316448885217  1.0000
  O   O6        1.0  0.0823025196835415  0.16374094003362497  0.3453780653168588  1.0000
  O   O7        1.0  0.5573128074518658  0.08394017383123609  0.7693332575193219  1.0000
  O   O8        1.0  0.8796347757807529  0.9174893183124083  0.7140365147279747  1.0000
  O   O9        1.0  0.9170808221659976  0.34264795838991274  0.9095005277302765  1.0000
  O   O10       1.0  0.46750503785725533  0.6251313743387779  0.59422492961567  1.0000
  O   O11       1.0  0.13084580477134977  0.7216752310788359  0.14448933398383804  1.0000
  O   O12       1.0  0.6546054713472064  0.2782147026595661  0.14208174135024854  1.0000
data_image34
_chemical_formula_structural       Cd4S4O12
_chemical_formula_sum              "Cd4 S4 O12"
_cell_length_a       9.025715
_cell_length_b       4.573479000000001
_cell_length_c       7.283293351582442
_cell_angle_alpha    88.92985652425466
_cell_angle_beta     90.0
_cell_angle_gamma    90.0

_space_group_name_H-M_alt    "P 1"
_space_group_IT_number       1

loop_
  _space_group_symop_operation_xyz
  'x, y, z'

loop_
  _atom_site_type_symbol
  _atom_site_label
  _atom_site_symmetry_multiplicity
  _atom_site_fract_x
  _atom_site_fract_y
  _atom_site_fract_z
  _atom_site_occupancy
  Cd  Cd1       1.0  0.7157841189745424  0.7058243081632813  0.48901411500069686  1.0000
  Cd  Cd2       1.0  0.19058677471005428  0.3511621656212449  0.02984313458381251  1.0000
  Cd  Cd3       1.0  0.28519089166679756  0.2754535926154908  0.5833506957209504  1.0000
  Cd  Cd4       1.0  0.7756413487677932  0.6630098092238672  0.977081643089033  1.0000
  S   S1        1.0  0.5654520013740965  0.17618955553026885  0.1800782624856847  1.0000
  S   S2        1.0  0.07231724142334638  0.8315370034701375  0.27145221736945857  1.0000
  S   S3        1.0  0.43006458078278226  0.879638541568354  0.7103302047835641  1.0000
  S   S4        1.0  0.9606311224058363  0.16440628091983717  0.7190172633709784  1.0000
  O   O1        1.0  0.9181164518388345  0.6940313120090551  0.27389873256018477  1.0000
  O   O2        1.0  0.4347551657536429  0.382163218248285  0.15498669076166957  1.0000
  O   O3        1.0  0.11641057354196138  0.01803446622400658  0.6765548455161088  1.0000
  O   O4        1.0  0.3403815266763116  0.7386199344249802  0.8654804066773316  1.0000
  O   O5        1.0  0.6269346841575916  0.22624313171229993  0.38579251541425746  1.0000
  O   O6        1.0  0.08519693279824442  0.14082316097973638  0.3013267573721334  1.0000
  O   O7        1.0  0.5908683535338923  0.8423679969992289  0.7692193528183522  1.0000
  O   O8        1.0  0.883343005328601  0.852071164251532  0.6737045402323376  1.0000
  O   O9        1.0  0.9330067184214197  0.2688263036535814  0.9094137405253635  1.0000
  O   O10       1.0  0.4317092288804039  0.6559579992658733  0.5478885610663468  1.0000
  O   O11       1.0  0.1478457073426537  0.7852401107672371  0.09154007028066828  1.0000
  O   O12       1.0  0.6876379418097998  0.25742553450052386  0.05833320088907522  1.0000
data_image35
_chemical_formula_structural       Cd4S4O12
_chemical_formula_sum              "Cd4 S4 O12"
_cell_length_a       9.025715
_cell_length_b       4.573479000000001
_cell_length_c       7.283293351582442
_cell_angle_alpha    88.92985652425466
_cell_angle_beta     90.0
_cell_angle_gamma    90.0

_space_group_name_H-M_alt    "P 1"
_space_group_IT_number       1

loop_
  _space_group_symop_operation_xyz
  'x, y, z'

loop_
  _atom_site_type_symbol
  _atom_site_label
  _atom_site_symmetry_multiplicity
  _atom_site_fract_x
  _atom_site_fract_y
  _atom_site_fract_z
  _atom_site_occupancy
  Cd  Cd1       1.0  0.7460888187267334  0.7598175638782415  0.4687064445466628  1.0000
  Cd  Cd2       1.0  0.20063310668438197  0.33887512525632424  0.9953782178558634  1.0000
  Cd  Cd3       1.0  0.31370917381360236  0.2868398887606133  0.56526373782335  1.0000
  Cd  Cd4       1.0  0.7676733258987629  0.6019473169232666  0.03535365690476211  1.0000
  S   S1        1.0  0.553379934991721  0.1569712859159764  0.22142060687556941  1.0000
  S   S2        1.0  0.03901959084121596  0.8628701252595784  0.33317019869556325  1.0000
  S   S3        1.0  0.44954276216004035  0.766882628879219  0.7057809176506914  1.0000
  S   S4        1.0  0.928678610140694  0.21268687298044972  0.7217097179942962  1.0000
  O   O1        1.0  0.8850762789763005  0.9144602068553338  0.2777179346934399  1.0000
  O   O2        1.0  0.443055844039255  0.42877981772768664  0.18765587839443756  1.0000
  O   O3        1.0  0.08155997222699765  0.07767361532710515  0.7309313295802792  1.0000
  O   O4        1.0  0.30240112225018123  0.6629916192820925  0.7956957728829294  1.0000
  O   O5        1.0  0.6770234038370022  0.26605780579681837  0.3281888190106994  1.0000
  O   O6        1.0  0.09118018890444074  0.22986889821355666  0.2946126133075498  1.0000
  O   O7        1.0  0.5443994089282522  0.5331062276279246  0.6097862668212576  1.0000
  O   O8        1.0  0.8242261674466471  0.952739049692219  0.7417533443153773  1.0000
  O   O9        1.0  0.9415486386590542  0.32471901605228526  0.9381292721301925  1.0000
  O   O10       1.0  0.3378471652961899  0.804189988757266  0.5182785933006644  1.0000
  O   O11       1.0  0.12886548595270694  0.7821855142621754  0.15010988201214734  1.0000
  O   O12       1.0  0.6279445950529091  0.052770640562065256  0.027532076913640714  1.0000
data_image36
_chemical_formula_structural       Cd4S4O12
_chemical_formula_sum              "Cd4 S4 O12"
_cell_length_a       9.025715
_cell_length_b       4.573479000000001
_cell_length_c       7.283293351582442
_cell_angle_alpha    88.92985652425466
_cell_angle_beta     90.0
_cell_angle_gamma    90.0

_space_group_name_H-M_alt    "P 1"
_space_group_IT_number       1

loop_
  _space_group_symop_operation_xyz
  'x, y, z'

loop_
  _atom_site_type_symbol
  _atom_site_label
  _atom_site_symmetry_multiplicity
  _atom_site_fract_x
  _atom_site_fract_y
  _atom_site_fract_z
  _atom_site_occupancy
  Cd  Cd1       1.0  0.7236804195908316  0.7750483796050658  0.46267240332369985  1.0000
  Cd  Cd2       1.0  0.18947462533164186  0.42914940543925717  0.9926125454915223  1.0000
  Cd  Cd3       1.0  0.2651462010475527  0.3430318122450581  0.47203284413861524  1.0000
  Cd  Cd4       1.0  0.7445189492006339  0.6533496925772404  0.030289019497683256  1.0000
  S   S1        1.0  0.6017228365021807  0.13627058489511573  0.2839981316412127  1.0000
  S   S2        1.0  0.09282283562968491  0.835035353043954  0.3196557507657501  1.0000
  S   S3        1.0  0.472609581238881  0.6035058069202246  0.7998600514256621  1.0000
  S   S4        1.0  0.9557181441386525  0.1960948573288058  0.7315019322893304  1.0000
  O   O1        1.0  0.9901684523807059  0.6818167830982413  0.18642629264538596  1.0000
  O   O2        1.0  0.45246241032885476  0.23740080896529606  0.3329608124229171  1.0000
  O   O3        1.0  0.11607341716733922  0.12374783138181547  0.7813457945410429  1.0000
  O   O4        1.0  0.3824849437362871  0.30395937767585174  0.849413948524454  1.0000
  O   O5        1.0  0.6981001111292829  0.3811166666103345  0.2821950570038786  1.0000
  O   O6        1.0  0.08800810666591968  0.161396131889902  0.31571916170118075  1.0000
  O   O7        1.0  0.614338088440828  0.4470430099982675  0.7144895560210419  1.0000
  O   O8        1.0  0.8655233948246904  0.9104980136044495  0.6854033828882816  1.0000
  O   O9        1.0  0.8812127386747952  0.3015338245936821  0.9361871777201357  1.0000
  O   O10       1.0  0.3861539275365513  0.7443848469832399  0.6264543209732876  1.0000
  O   O11       1.0  0.2548308418472648  0.7037490065208325  0.2389861316306475  1.0000
  O   O12       1.0  0.5982452564544463  0.9824527081621953  0.09787582553873435  1.0000
data_image37
_chemical_formula_structural       Cd4S4O12
_chemical_formula_sum              "Cd4 S4 O12"
_cell_length_a       9.025715
_cell_length_b       4.573479000000001
_cell_length_c       7.283293351582442
_cell_angle_alpha    88.92985652425466
_cell_angle_beta     90.0
_cell_angle_gamma    90.0

_space_group_name_H-M_alt    "P 1"
_space_group_IT_number       1

loop_
  _space_group_symop_operation_xyz
  'x, y, z'

loop_
  _atom_site_type_symbol
  _atom_site_label
  _atom_site_symmetry_multiplicity
  _atom_site_fract_x
  _atom_site_fract_y
  _atom_site_fract_z
  _atom_site_occupancy
  Cd  Cd1       1.0  0.7696894188353828  0.75125057549573  0.520747224877554  1.0000
  Cd  Cd2       1.0  0.16226062359061494  0.38130223149250536  0.999149206481208  1.0000
  Cd  Cd3       1.0  0.2484933917472033  0.31201379149141656  0.47557780820597534  1.0000
  Cd  Cd4       1.0  0.772122542264063  0.6778471621712353  0.960646987818623  1.0000
  S   S1        1.0  0.6523981348053112  0.23181460393302808  0.3132173539743965  1.0000
  S   S2        1.0  0.014121659717861468  0.7864244933313269  0.2862105166095038  1.0000
  S   S3        1.0  0.4448628603189787  0.5934450051404814  0.8143308397818679  1.0000
  S   S4        1.0  0.9189717245246756  0.1937539504989104  0.719672691527099  1.0000
  O   O1        1.0  0.9940378130337515  0.8021283734710222  0.05730855900314476  1.0000
  O   O2        1.0  0.49142908315201433  0.24325145665534648  0.3415095995720523  1.0000
  O   O3        1.0  0.10344114011174019  0.30033830645684295  0.7152656318551412  1.0000
  O   O4        1.0  0.41184802044413177  0.3006656777559478  0.89141052911223  1.0000
  O   O5        1.0  0.699507896210563  0.5316013607865784  0.24394552308168782  1.0000
  O   O6        1.0  0.016684205032073615  0.10313173181782476  0.3583252698687021  1.0000
  O   O7        1.0  0.5846900981100535  0.5627263605744385  0.6874250284416733  1.0000
  O   O8        1.0  0.9434972528122689  0.8821185700086707  0.7217257487007255  1.0000
  O   O9        1.0  0.8750779598643498  0.275059679988038  0.9208222207127466  1.0000
  O   O10       1.0  0.3250820441329974  0.694938033287976  0.6950429204308288  1.0000
  O   O11       1.0  0.19957838249346713  0.6809020587015893  0.29993521784197297  1.0000
  O   O12       1.0  0.6682280305389847  0.06705757385635851  0.14254218048730924  1.0000
data_image38
_chemical_formula_structural       Cd4S4O12
_chemical_formula_sum              "Cd4 S4 O12"
_cell_length_a       9.025715
_cell_length_b       4.573479000000001
_cell_length_c       7.283293351582442
_cell_angle_alpha    88.92985652425466
_cell_angle_beta     90.0
_cell_angle_gamma    90.0

_space_group_name_H-M_alt    "P 1"
_space_group_IT_number       1

loop_
  _space_group_symop_operation_xyz
  'x, y, z'

loop_
  _atom_site_type_symbol
  _atom_site_label
  _atom_site_symmetry_multiplicity
  _atom_site_fract_x
  _atom_site_fract_y
  _atom_site_fract_z
  _atom_site_occupancy
  Cd  Cd1       1.0  0.763649577557652  0.7584225628310212  0.4816110624416813  1.0000
  Cd  Cd2       1.0  0.1784207841250238  0.25720058570349436  0.9908239907313372  1.0000
  Cd  Cd3       1.0  0.24845812663776415  0.29821659686309104  0.45618856414161063  1.0000
  Cd  Cd4       1.0  0.7596587834469958  0.6711485045052458  0.024328836154816846  1.0000
  S   S1        1.0  0.605736379361533  0.17983993760015746  0.2865415549268441  1.0000
  S   S2        1.0  0.03913410211109019  0.8936652569259983  0.27603019882542357  1.0000
  S   S3        1.0  0.46405226349452366  0.6445166429710141  0.8817060440868376  1.0000
  S   S4        1.0  0.931121870028025  0.25381681411422297  0.6685920027718443  1.0000
  O   O1        1.0  0.09344290682751177  0.8117690851607021  0.0869262422558111  1.0000
  O   O2        1.0  0.44868631325494357  0.13952141966168966  0.2729879123847654  1.0000
  O   O3        1.0  0.09505423771338307  0.36378577789410416  0.6901603400297034  1.0000
  O   O4        1.0  0.38651175361081824  0.3356814054385526  0.8747350822671219  1.0000
  O   O5        1.0  0.6441524068544513  0.4919448083697664  0.31689359881275847  1.0000
  O   O6        1.0  0.050252489556756604  0.24701119097546323  0.24889107400450142  1.0000
  O   O7        1.0  0.6038560257143416  0.6004668367822679  0.7695771629751635  1.0000
  O   O8        1.0  0.910576681614535  0.9430135940599831  0.6729636409850548  1.0000
  O   O9        1.0  0.8775274153770537  0.34868471672627405  0.8886974222561566  1.0000
  O   O10       1.0  0.3446500581846435  0.853662944972935  0.7988890395023174  1.0000
  O   O11       1.0  0.17369512607359924  0.8790082349902949  0.3945230788655337  1.0000
  O   O12       1.0  0.6787006211493668  0.05867393110961508  0.1112688513507869  1.0000
data_image39
_chemical_formula_structural       Cd4S4O12
_chemical_formula_sum              "Cd4 S4 O12"
_cell_length_a       9.025715
_cell_length_b       4.573479000000001
_cell_length_c       7.283293351582442
_cell_angle_alpha    88.92985652425466
_cell_angle_beta     90.0
_cell_angle_gamma    90.0

_space_group_name_H-M_alt    "P 1"
_space_group_IT_number       1

loop_
  _space_group_symop_operation_xyz
  'x, y, z'

loop_
  _atom_site_type_symbol
  _atom_site_label
  _atom_site_symmetry_multiplicity
  _atom_site_fract_x
  _atom_site_fract_y
  _atom_site_fract_z
  _atom_site_occupancy
  Cd  Cd1       1.0  0.7577113530381328  0.7378305418737684  0.5024026944758848  1.0000
  Cd  Cd2       1.0  0.18060360985642693  0.15111130655346297  0.9476746629954617  1.0000
  Cd  Cd3       1.0  0.2730548369722225  0.4227713377222248  0.5094180659234867  1.0000
  Cd  Cd4       1.0  0.7339835835302891  0.590554413341959  0.038006652965535626  1.0000
  S   S1        1.0  0.5772554735568628  0.17569618884087446  0.32474946334790883  1.0000
  S   S2        1.0  0.08952401902615745  0.9006423317327933  0.29306595023941495  1.0000
  S   S3        1.0  0.45196801387563096  0.7043183355154439  0.7881940100635837  1.0000
  S   S4        1.0  0.9078330554421019  0.3848141176598082  0.7070668494426299  1.0000
  O   O1        1.0  0.14977325463046953  0.7263565240333489  0.13329893080510027  1.0000
  O   O2        1.0  0.4307112735856672  0.13717838879397218  0.25638826499076317  1.0000
  O   O3        1.0  0.07508260185498736  0.44530306573192685  0.7181558890731865  1.0000
  O   O4        1.0  0.37089958781281146  0.42912371441481645  0.7672586065639088  1.0000
  O   O5        1.0  0.6288840170940472  0.5095790190529448  0.2842939475227235  1.0000
  O   O6        1.0  0.09378315970709387  0.2233010594740837  0.22721553754935897  1.0000
  O   O7        1.0  0.6070686588338488  0.615171387570342  0.7205658553303503  1.0000
  O   O8        1.0  0.8964402518718018  0.1213069236794404  0.5816963005714657  1.0000
  O   O9        1.0  0.852300771144087  0.28632683825861355  0.8852304579043702  1.0000
  O   O10       1.0  0.39993754667040826  0.8513912169166953  0.5952309682439243  1.0000
  O   O11       1.0  0.16895068763044702  0.8592803425332757  0.4682191688980102  1.0000
  O   O12       1.0  0.6918443719476638  0.05959982801011957  0.19222550586189152  1.0000
data_image40
_chemical_formula_structural       Cd4S4O12
_chemical_formula_sum              "Cd4 S4 O12"
_cell_length_a       9.025715
_cell_length_b       4.573479000000001
_cell_length_c       7.283293351582442
_cell_angle_alpha    88.92985652425466
_cell_angle_beta     90.0
_cell_angle_gamma    90.0

_space_group_name_H-M_alt    "P 1"
_space_group_IT_number       1

loop_
  _space_group_symop_operation_xyz
  'x, y, z'

loop_
  _atom_site_type_symbol
  _atom_site_label
  _atom_site_symmetry_multiplicity
  _atom_site_fract_x
  _atom_site_fract_y
  _atom_site_fract_z
  _atom_site_occupancy
  Cd  Cd1       1.0  0.769966169862926  0.8020410867099025  0.5377024146349694  1.0000
  Cd  Cd2       1.0  0.2201410019684418  0.1374249782772124  0.930104986695897  1.0000
  Cd  Cd3       1.0  0.25849380055035426  0.420325984924751  0.4501480373270503  1.0000
  Cd  Cd4       1.0  0.7293080781788677  0.595595286613889  0.09961664910316448  1.0000
  S   S1        1.0  0.5620962664400955  0.24330240022277266  0.33707413686078697  1.0000
  S   S2        1.0  0.022933589727762663  0.934730540658923  0.22660796809295197  1.0000
  S   S3        1.0  0.4568610818880362  0.6044862420437426  0.7743253928437311  1.0000
  S   S4        1.0  0.9246083959653254  0.29202450261462565  0.7378908684880771  1.0000
  O   O1        1.0  0.17426746241109847  0.7611579945808822  0.11351359991940642  1.0000
  O   O2        1.0  0.4155047840617119  0.24555546160316905  0.24811847084604877  1.0000
  O   O3        1.0  0.08174337898370153  0.34691722885718457  0.6800576074206968  1.0000
  O   O4        1.0  0.4077000162789623  0.30012083425359687  0.8021284351985848  1.0000
  O   O5        1.0  0.5674275890140658  0.6103381115112974  0.3166357430397175  1.0000
  O   O6        1.0  0.05487405411273267  0.25253100061228456  0.20794028942561937  1.0000
  O   O7        1.0  0.6363796661481093  0.6360978787372322  0.8068398859534462  1.0000
  O   O8        1.0  0.7919501021965206  0.28308949927220795  0.5827654231033939  1.0000
  O   O9        1.0  0.9441255182409862  0.9668834920141879  0.817797692049277  1.0000
  O   O10       1.0  0.4048874153277488  0.7503442271044828  0.592572131443256  1.0000
  O   O11       1.0  0.09431744220549383  0.8649264306040478  0.4116082963153448  1.0000
  O   O12       1.0  0.6892749227999343  0.0437362621469803  0.19209051692287707  1.0000
data_image41
_chemical_formula_structural       Cd4S4O12
_chemical_formula_sum              "Cd4 S4 O12"
_cell_length_a       9.025715
_cell_length_b       4.573479000000001
_cell_length_c       7.283293351582442
_cell_angle_alpha    88.92985652425466
_cell_angle_beta     90.0
_cell_angle_gamma    90.0

_space_group_name_H-M_alt    "P 1"
_space_group_IT_number       1

loop_
  _space_group_symop_operation_xyz
  'x, y, z'

loop_
  _atom_site_type_symbol
  _atom_site_label
  _atom_site_symmetry_multiplicity
  _atom_site_fract_x
  _atom_site_fract_y
  _atom_site_fract_z
  _atom_site_occupancy
  Cd  Cd1       1.0  0.7693556642037181  0.8601063349790464  0.6053670250949528  1.0000
  Cd  Cd2       1.0  0.25094059519012  0.04509490922370777  0.9215500586401442  1.0000
  Cd  Cd3       1.0  0.16736750261460479  0.41533746156795576  0.3891964639478999  1.0000
  Cd  Cd4       1.0  0.7804961860663178  0.6729148744262756  0.07388871301657884  1.0000
  S   S1        1.0  0.5578202222458516  0.2821915737825603  0.33282138526644417  1.0000
  S   S2        1.0  0.9840793469287101  0.9104138695209225  0.21934335775882677  1.0000
  S   S3        1.0  0.45528667969191466  0.4607541345279277  0.817481429971177  1.0000
  S   S4        1.0  0.9660328062163599  0.31435721728769433  0.7510387462556259  1.0000
  O   O1        1.0  0.12961977009728742  0.7435173522096338  0.12885569230939178  1.0000
  O   O2        1.0  0.4055383134822149  0.32638582454209814  0.21259052069393283  1.0000
  O   O3        1.0  0.11250398745705906  0.45647474217470463  0.6859616652247627  1.0000
  O   O4        1.0  0.47111942871501084  0.15598372449585607  0.8233615935476868  1.0000
  O   O5        1.0  0.5847698449862668  0.6102526407625506  0.37953866234936356  1.0000
  O   O6        1.0  0.03149728452301859  0.21779638364993448  0.1806715616790223  1.0000
  O   O7        1.0  0.6317653952156723  0.6137467659739597  0.7985738769936485  1.0000
  O   O8        1.0  0.8629746583860083  0.26543133945135233  0.5852530123412947  1.0000
  O   O9        1.0  0.9897817953692053  0.0017732783009780958  0.8424145687868231  1.0000
  O   O10       1.0  0.3973358809929558  0.5798580159539679  0.6460680466984641  1.0000
  O   O11       1.0  0.029443495301385698  0.807532095720369  0.41356540910543205  1.0000
  O   O12       1.0  0.6835953426253246  0.22570753069297134  0.1801106129751622  1.0000
data_image42
_chemical_formula_structural       Cd4S4O12
_chemical_formula_sum              "Cd4 S4 O12"
_cell_length_a       9.025715
_cell_length_b       4.573479000000001
_cell_length_c       7.283293351582442
_cell_angle_alpha    88.92985652425466
_cell_angle_beta     90.0
_cell_angle_gamma    90.0

_space_group_name_H-M_alt    "P 1"
_space_group_IT_number       1

loop_
  _space_group_symop_operation_xyz
  'x, y, z'

loop_
  _atom_site_type_symbol
  _atom_site_label
  _atom_site_symmetry_multiplicity
  _atom_site_fract_x
  _atom_site_fract_y
  _atom_site_fract_z
  _atom_site_occupancy
  Cd  Cd1       1.0  0.7719691416916307  0.865012022522125  0.583788156469184  1.0000
  Cd  Cd2       1.0  0.26421084234590586  0.003388780722990234  0.9550246765086704  1.0000
  Cd  Cd3       1.0  0.14004365553342846  0.39554248236308026  0.4165017663202023  1.0000
  Cd  Cd4       1.0  0.7509714062233069  0.6440659782115623  0.04727763251621098  1.0000
  S   S1        1.0  0.5660307288405259  0.3717024773984673  0.34159258049125446  1.0000
  S   S2        1.0  0.028654554971496715  0.9010243360354476  0.13870067097678973  1.0000
  S   S3        1.0  0.4761956187100351  0.605317588908053  0.8637741016797382  1.0000
  S   S4        1.0  0.9698108245399739  0.28529892857845224  0.7565645787122857  1.0000
  O   O1        1.0  0.1448361800531417  0.6852528151603492  0.07386347491432166  1.0000
  O   O2        1.0  0.39884355974377156  0.44494324431543014  0.27502199171276415  1.0000
  O   O3        1.0  0.1389266279957831  0.22879006303768387  0.7434458375753273  1.0000
  O   O4        1.0  0.4627820327528761  0.25935345944903815  0.8483051584728412  1.0000
  O   O5        1.0  0.6468196010973404  0.6822815065674299  0.3458875632543652  1.0000
  O   O6        1.0  0.07261384107410641  0.21976954569066157  0.09896855107536164  1.0000
  O   O7        1.0  0.6682725704707353  0.5883264583505499  0.8018756390487319  1.0000
  O   O8        1.0  0.8939528671639665  0.3245852133294489  0.5721665492159375  1.0000
  O   O9        1.0  0.9165967005665729  0.9338976505387966  0.7978348455216446  1.0000
  O   O10       1.0  0.3899092774910648  0.7804115713483671  0.7153756387057754  1.0000
  O   O11       1.0  0.058765141671597146  0.8929618252313812  0.3458551012363307  1.0000
  O   O12       1.0  0.6632284278500944  0.18018100381260135  0.2123546297981129  1.0000
data_image43
_chemical_formula_structural       Cd4S4O12
_chemical_formula_sum              "Cd4 S4 O12"
_cell_length_a       9.025715
_cell_length_b       4.573479000000001
_cell_length_c       7.283293351582442
_cell_angle_alpha    88.92985652425466
_cell_angle_beta     90.0
_cell_angle_gamma    90.0

_space_group_name_H-M_alt    "P 1"
_space_group_IT_number       1

loop_
  _space_group_symop_operation_xyz
  'x, y, z'

loop_
  _atom_site_type_symbol
  _atom_site_label
  _atom_site_symmetry_multiplicity
  _atom_site_fract_x
  _atom_site_fract_y
  _atom_site_fract_z
  _atom_site_occupancy
  Cd  Cd1       1.0  0.7314129321583  0.867123396033348  0.5381137362366983  1.0000
  Cd  Cd2       1.0  0.32939337741562746  0.026680918173447907  0.9629799166486737  1.0000
  Cd  Cd3       1.0  0.1777425872369215  0.37054112223818203  0.4089268738840699  1.0000
  Cd  Cd4       1.0  0.7482182039044268  0.7169895699361241  0.1168098194060545  1.0000
  S   S1        1.0  0.5467449172865867  0.23335315373217305  0.3576758510693745  1.0000
  S   S2        1.0  0.015857206435547635  0.9144731727839099  0.13490693525409211  1.0000
  S   S3        1.0  0.48074814468514926  0.6340254387465883  0.8375747231362837  1.0000
  S   S4        1.0  0.9368932991962623  0.3078011334159749  0.723057840719601  1.0000
  O   O1        1.0  0.17727096630768768  0.7746388322397798  0.12961855736633648  1.0000
  O   O2        1.0  0.38528985993161013  0.18556744585993334  0.3589957146157645  1.0000
  O   O3        1.0  0.11132149002741805  0.1787867046052471  0.6500021836552154  1.0000
  O   O4        1.0  0.5003947604471509  0.29325090727632874  0.8511324385173848  1.0000
  O   O5        1.0  0.5826070046540778  0.5591841749399986  0.33777511817250094  1.0000
  O   O6        1.0  0.022013602648990944  0.22367690438521526  0.1582475438106647  1.0000
  O   O7        1.0  0.6403364721029037  0.738718979254317  0.8002706753722024  1.0000
  O   O8        1.0  0.8490426471217191  0.37899163499271316  0.5571738631141563  1.0000
  O   O9        1.0  0.9101238622772809  0.9927371234609255  0.7751781405842489  1.0000
  O   O10       1.0  0.39770242336847045  0.6501504055906836  0.661651204307305  1.0000
  O   O11       1.0  0.9799809520174636  0.7552123736998105  0.3274952336201535  1.0000
  O   O12       1.0  0.6046755351696635  0.13746366187073475  0.15898550626745328  1.0000
data_image44
_chemical_formula_structural       Cd4S4O12
_chemical_formula_sum              "Cd4 S4 O12"
_cell_length_a       9.025715
_cell_length_b       4.573479000000001
_cell_length_c       7.283293351582442
_cell_angle_alpha    88.92985652425466
_cell_angle_beta     90.0
_cell_angle_gamma    90.0

_space_group_name_H-M_alt    "P 1"
_space_group_IT_number       1

loop_
  _space_group_symop_operation_xyz
  'x, y, z'

loop_
  _atom_site_type_symbol
  _atom_site_label
  _atom_site_symmetry_multiplicity
  _atom_site_fract_x
  _atom_site_fract_y
  _atom_site_fract_z
  _atom_site_occupancy
  Cd  Cd1       1.0  0.7626786806527016  0.7961296558405576  0.5686151798858987  1.0000
  Cd  Cd2       1.0  0.3721398816144058  0.09727637160658542  0.0067766748296524265  1.0000
  Cd  Cd3       1.0  0.1576213408620215  0.42441772716809095  0.3662136428325511  1.0000
  Cd  Cd4       1.0  0.7088511692930287  0.67612411967542  0.12458406925596388  1.0000
  S   S1        1.0  0.5381935415019495  0.2345073130509363  0.3122137701978127  1.0000
  S   S2        1.0  0.9932959198269389  0.8937606726502979  0.15183446211247845  1.0000
  S   S3        1.0  0.4746320748322782  0.5656267627522161  0.7784220850280398  1.0000
  S   S4        1.0  0.9764024953494632  0.2694030077435058  0.7606277566421016  1.0000
  O   O1        1.0  0.18675586946922174  0.8267560303877286  0.22877126536580905  1.0000
  O   O2        1.0  0.36027532722139355  0.21459763842925758  0.2771447022676927  1.0000
  O   O3        1.0  0.123086097220181  0.320508517674183  0.7119032889113429  1.0000
  O   O4        1.0  0.37013261981734596  0.3139683571897789  0.7099880382354077  1.0000
  O   O5        1.0  0.529471034744923  0.5779134968109723  0.300802681149115  1.0000
  O   O6        1.0  0.022535839188499242  0.21690447740292676  0.12311633323813911  1.0000
  O   O7        1.0  0.6320609856675641  0.4702470405056365  0.8302963473383917  1.0000
  O   O8        1.0  0.8917882646930979  0.3717538810838883  0.5859169587970193  1.0000
  O   O9        1.0  0.9374855319124143  0.8945624468830654  0.758048359882213  1.0000
  O   O10       1.0  0.4885015432551514  0.7880502237226863  0.6450313934456763  1.0000
  O   O11       1.0  0.9023369520023062  0.8987496396006168  0.31611973880949124  1.0000
  O   O12       1.0  0.6109234398127226  0.13239680287624847  0.1051440986673519  1.0000
data_image45
_chemical_formula_structural       Cd4S4O12
_chemical_formula_sum              "Cd4 S4 O12"
_cell_length_a       9.025715
_cell_length_b       4.573479000000001
_cell_length_c       7.283293351582442
_cell_angle_alpha    88.92985652425466
_cell_angle_beta     90.0
_cell_angle_gamma    90.0

_space_group_name_H-M_alt    "P 1"
_space_group_IT_number       1

loop_
  _space_group_symop_operation_xyz
  'x, y, z'

loop_
  _atom_site_type_symbol
  _atom_site_label
  _atom_site_symmetry_multiplicity
  _atom_site_fract_x
  _atom_site_fract_y
  _atom_site_fract_z
  _atom_site_occupancy
  Cd  Cd1       1.0  0.7569549736618462  0.7592181675285437  0.59359161664851  1.0000
  Cd  Cd2       1.0  0.343093539537076  0.0707174328094188  0.976521146697107  1.0000
  Cd  Cd3       1.0  0.11267719051357408  0.3973031191521348  0.38015728021708733  1.0000
  Cd  Cd4       1.0  0.7730566677230118  0.5999860118522068  0.05809098026671755  1.0000
  S   S1        1.0  0.5351621615963242  0.31682199349855256  0.3413562511859248  1.0000
  S   S2        1.0  0.9510683217000501  0.9661650313887954  0.14828911174845125  1.0000
  S   S3        1.0  0.5313470833181285  0.7314355566657298  0.8470622517211429  1.0000
  S   S4        1.0  0.9821513830425275  0.22053917811761614  0.7458298219855344  1.0000
  O   O1        1.0  0.10333574968040127  0.926730903811847  0.07880934705833  1.0000
  O   O2        1.0  0.36885376672514236  0.316458491541872  0.2551585979941327  1.0000
  O   O3        1.0  0.15377498491260894  0.19843161763774464  0.6918658311799802  1.0000
  O   O4        1.0  0.38382903441984334  0.6295374197640264  0.9098282286855524  1.0000
  O   O5        1.0  0.5799776822962206  0.667126997259994  0.3412365799401372  1.0000
  O   O6        1.0  0.9368097210273091  0.29653167968983446  0.1470749958359134  1.0000
  O   O7        1.0  0.6428362013692749  0.4233137255816003  0.8127447062700153  1.0000
  O   O8        1.0  0.9200647493242967  0.30325408475676796  0.5591169144230163  1.0000
  O   O9        1.0  0.9747476340620644  0.8887471194123368  0.7767295508392172  1.0000
  O   O10       1.0  0.5005145176777014  0.9848345562906488  0.6860998673370399  1.0000
  O   O11       1.0  0.9314624750300251  0.8165145650360226  0.3628631144165602  1.0000
  O   O12       1.0  0.6332751535396519  0.19480638215254112  0.20655664586142441  1.0000
data_image46
_chemical_formula_structural       Cd4S4O12
_chemical_formula_sum              "Cd4 S4 O12"
_cell_length_a       9.025715
_cell_length_b       4.573479000000001
_cell_length_c       7.283293351582442
_cell_angle_alpha    88.92985652425466
_cell_angle_beta     90.0
_cell_angle_gamma    90.0

_space_group_name_H-M_alt    "P 1"
_space_group_IT_number       1

loop_
  _space_group_symop_operation_xyz
  'x, y, z'

loop_
  _atom_site_type_symbol
  _atom_site_label
  _atom_site_symmetry_multiplicity
  _atom_site_fract_x
  _atom_site_fract_y
  _atom_site_fract_z
  _atom_site_occupancy
  Cd  Cd1       1.0  0.8110627201507484  0.7170216678746487  0.5246386769747063  1.0000
  Cd  Cd2       1.0  0.291824800501891  0.17717297780881272  0.9571561192346911  1.0000
  Cd  Cd3       1.0  0.155041213298944  0.4215084841433621  0.39669756573737475  1.0000
  Cd  Cd4       1.0  0.7387468167570065  0.5660013952925149  0.02105101593705272  1.0000
  S   S1        1.0  0.5594114831890215  0.25982799406359985  0.3653413296844966  1.0000
  S   S2        1.0  0.9719825506446509  0.895534532765182  0.25915614651670715  1.0000
  S   S3        1.0  0.4891464123105862  0.6988508219930252  0.8778698718688461  1.0000
  S   S4        1.0  0.9596079488572605  0.23619713347837057  0.7932480666290533  1.0000
  O   O1        1.0  0.058553021818878115  0.7512503381790591  0.11676544822542377  1.0000
  O   O2        1.0  0.3668131361644464  0.20858821485555154  0.3369514362461829  1.0000
  O   O3        1.0  0.11807196015308365  0.34383032613978987  0.7454313350790125  1.0000
  O   O4        1.0  0.3370890831839215  0.6862269889609498  0.9391141291162495  1.0000
  O   O5        1.0  0.6611263824827264  0.5653712685234169  0.3155125321715639  1.0000
  O   O6        1.0  0.9757719174291053  0.2302750049793316  0.21398740064198316  1.0000
  O   O7        1.0  0.5628052266896649  0.6427616484825178  0.6564396658533311  1.0000
  O   O8        1.0  0.9046809302323467  0.2525470978457176  0.5989651641292604  1.0000
  O   O9        1.0  0.9305116454346599  0.884564106866082  0.8115760270507588  1.0000
  O   O10       1.0  0.4875747579344621  0.032730661659018834  0.8132506195255695  1.0000
  O   O11       1.0  0.08319056610116092  0.8648083821116946  0.4433964658733212  1.0000
  O   O12       1.0  0.5965691064271945  0.09786105569475786  0.17870624801919344  1.0000
data_image47
_chemical_formula_structural       Cd4S4O12
_chemical_formula_sum              "Cd4 S4 O12"
_cell_length_a       9.025715
_cell_length_b       4.573479000000001
_cell_length_c       7.283293351582442
_cell_angle_alpha    88.92985652425466
_cell_angle_beta     90.0
_cell_angle_gamma    90.0

_space_group_name_H-M_alt    "P 1"
_space_group_IT_number       1

loop_
  _space_group_symop_operation_xyz
  'x, y, z'

loop_
  _atom_site_type_symbol
  _atom_site_label
  _atom_site_symmetry_multiplicity
  _atom_site_fract_x
  _atom_site_fract_y
  _atom_site_fract_z
  _atom_site_occupancy
  Cd  Cd1       1.0  0.8208456642736143  0.7169067345782987  0.5537730436555558  1.0000
  Cd  Cd2       1.0  0.2784545030762684  0.2680589766173361  0.9784469664568312  1.0000
  Cd  Cd3       1.0  0.18720017473243147  0.32466571380686904  0.43077120274702413  1.0000
  Cd  Cd4       1.0  0.7178892910894136  0.5728384382810446  0.027665694998837864  1.0000
  S   S1        1.0  0.6020960718643582  0.20835807377869128  0.3093394296788012  1.0000
  S   S2        1.0  0.9915060973002225  0.8682251201442787  0.25231572620828  1.0000
  S   S3        1.0  0.47701539471322385  0.8550840594105696  0.8208460685823826  1.0000
  S   S4        1.0  0.9047527739641343  0.2356216573590505  0.7712477372704213  1.0000
  O   O1        1.0  0.9611348943577596  0.7031680968407381  0.092395569942772  1.0000
  O   O2        1.0  0.44382743386495954  0.1913421647633941  0.21254783142830563  1.0000
  O   O3        1.0  0.06295493428537279  0.25351535489026966  0.7688069569785635  1.0000
  O   O4        1.0  0.35606754580320715  0.7518318492432438  0.9683505745225961  1.0000
  O   O5        1.0  0.6332142064016183  0.5773529214917013  0.31052026267365934  1.0000
  O   O6        1.0  0.06990287499969419  0.15137213331288313  0.1889703766062189  1.0000
  O   O7        1.0  0.5736233429133462  0.5908140830658228  0.7299316039010386  1.0000
  O   O8        1.0  0.883806587958064  0.220352852150147  0.5445045609696897  1.0000
  O   O9        1.0  0.8116519392082052  0.9826944441166513  0.7993726107429413  1.0000
  O   O10       1.0  0.3836774442276083  0.03305820859572561  0.7042929302552126  1.0000
  O   O11       1.0  0.16116544020464268  0.7840930966103985  0.3497835544545416  1.0000
  O   O12       1.0  0.6973610726042943  0.15495824144997153  0.15131620271234392  1.0000
data_image48
_chemical_formula_structural       Cd4S4O12
_chemical_formula_sum              "Cd4 S4 O12"
_cell_length_a       9.025715
_cell_length_b       4.573479000000001
_cell_length_c       7.283293351582442
_cell_angle_alpha    88.92985652425466
_cell_angle_beta     90.0
_cell_angle_gamma    90.0

_space_group_name_H-M_alt    "P 1"
_space_group_IT_number       1

loop_
  _space_group_symop_operation_xyz
  'x, y, z'

loop_
  _atom_site_type_symbol
  _atom_site_label
  _atom_site_symmetry_multiplicity
  _atom_site_fract_x
  _atom_site_fract_y
  _atom_site_fract_z
  _atom_site_occupancy
  Cd  Cd1       1.0  0.771700031836121  0.6900825396449599  0.5056716101869873  1.0000
  Cd  Cd2       1.0  0.28341591125946997  0.3369242657724277  0.0326458753080907  1.0000
  Cd  Cd3       1.0  0.2273271377690819  0.21047824340386265  0.4717107787051059  1.0000
  Cd  Cd4       1.0  0.6747194782689436  0.643985249076798  0.9808661533038798  1.0000
  S   S1        1.0  0.6156061623504658  0.1367714961887942  0.3149503756939955  1.0000
  S   S2        1.0  0.06766437766979272  0.8599311850525795  0.20130407304702588  1.0000
  S   S3        1.0  0.43420447214004304  0.9406667004006304  0.8051745304588637  1.0000
  S   S4        1.0  0.9189593471404568  0.2465936222224672  0.7833561592749555  1.0000
  O   O1        1.0  0.09786671440056915  0.7241070576494343  0.027092723208321536  1.0000
  O   O2        1.0  0.45005552485338435  0.22061318687893547  0.33772450914062035  1.0000
  O   O3        1.0  0.08146179631862586  0.1890700970226703  0.8250337109955479  1.0000
  O   O4        1.0  0.3850460415198993  0.8217888262118521  0.9888699761639307  1.0000
  O   O5        1.0  0.6624332321801969  0.48295342730145085  0.281016768988909  1.0000
  O   O6        1.0  0.0792097755219006  0.20310855440496772  0.21443087514018033  1.0000
  O   O7        1.0  0.5248865106285384  0.6542327738853133  0.7367030647981644  1.0000
  O   O8        1.0  0.957665534168727  0.3465570181315303  0.5445525045843531  1.0000
  O   O9        1.0  0.8379931261856014  0.9784855892448798  0.8099436283444369  1.0000
  O   O10       1.0  0.3086346855511152  0.9097874054101892  0.6752373390031792  1.0000
  O   O11       1.0  0.18522967851380204  0.7657553946817435  0.3580296825367542  1.0000
  O   O12       1.0  0.6776588713569384  0.060282657987604966  0.12064166149238621  1.0000
data_image49
_chemical_formula_structural       Cd4S4O12
_chemical_formula_sum              "Cd4 S4 O12"
_cell_length_a       9.025715
_cell_length_b       4.573479000000001
_cell_length_c       7.283293351582442
_cell_angle_alpha    88.92985652425466
_cell_angle_beta     90.0
_cell_angle_gamma    90.0

_space_group_name_H-M_alt    "P 1"
_space_group_IT_number       1

loop_
  _space_group_symop_operation_xyz
  'x, y, z'

loop_
  _atom_site_type_symbol
  _atom_site_label
  _atom_site_symmetry_multiplicity
  _atom_site_fract_x
  _atom_site_fract_y
  _atom_site_fract_z
  _atom_site_occupancy
  Cd  Cd1       1.0  0.8041612057328168  0.7375761988978897  0.49852115488467097  1.0000
  Cd  Cd2       1.0  0.2689485756644877  0.4734828345439054  0.03715834232277166  1.0000
  Cd  Cd3       1.0  0.2148080934886495  0.18534393188653708  0.5322224234755487  1.0000
  Cd  Cd4       1.0  0.6608985319210574  0.5118051085485359  0.9687158988330676  1.0000
  S   S1        1.0  0.6187507903715311  0.19356196007428417  0.29315528278435304  1.0000
  S   S2        1.0  0.04855420245851176  0.8927635462095113  0.2389451526945694  1.0000
  S   S3        1.0  0.44198888455027074  0.8206544989023996  0.7513042132595618  1.0000
  S   S4        1.0  0.9375751146157308  0.25028285211838525  0.7655927667928275  1.0000
  O   O1        1.0  0.9962861884844355  0.7860282416921905  0.06123663794458739  1.0000
  O   O2        1.0  0.46229376349601936  0.26686860570321164  0.3435721144957005  1.0000
  O   O3        1.0  0.08972987562978278  0.25499518012850575  0.8220722106337839  1.0000
  O   O4        1.0  0.3897161490634432  0.812623277879987  0.9528852270580259  1.0000
  O   O5        1.0  0.7209116076310842  0.483376377242007  0.2736663785540106  1.0000
  O   O6        1.0  0.12219024961286554  0.22684379507262575  0.21767227121284627  1.0000
  O   O7        1.0  0.5579532060961951  0.5550950193003114  0.7206317207381402  1.0000
  O   O8        1.0  0.905258993678829  0.3420345451698046  0.5805162618165677  1.0000
  O   O9        1.0  0.8938633227455558  0.9118014313080743  0.7311455999236527  1.0000
  O   O10       1.0  0.2952939177391643  0.7720578415096802  0.6271980783702841  1.0000
  O   O11       1.0  0.18860625882662896  0.7523834858486692  0.2912540528804861  1.0000
  O   O12       1.0  0.6590034325783085  0.050342935399206125  0.08719452278360737  1.0000
data_image50
_chemical_formula_structural       Cd4S4O12
_chemical_formula_sum              "Cd4 S4 O12"
_cell_length_a       9.025715
_cell_length_b       4.573479000000001
_cell_length_c       7.283293351582442
_cell_angle_alpha    88.92985652425466
_cell_angle_beta     90.0
_cell_angle_gamma    90.0

_space_group_name_H-M_alt    "P 1"
_space_group_IT_number       1

loop_
  _space_group_symop_operation_xyz
  'x, y, z'

loop_
  _atom_site_type_symbol
  _atom_site_label
  _atom_site_symmetry_multiplicity
  _atom_site_fract_x
  _atom_site_fract_y
  _atom_site_fract_z
  _atom_site_occupancy
  Cd  Cd1       1.0  0.8273317118227481  0.8616627338419355  0.4435034315002979  1.0000
  Cd  Cd2       1.0  0.23033291504681938  0.4349181756099528  0.012352063059788886  1.0000
  Cd  Cd3       1.0  0.20849306532905365  0.22392871154997124  0.5301087723672682  1.0000
  Cd  Cd4       1.0  0.6942889112562554  0.43767380452245086  0.9662102246894465  1.0000
  S   S1        1.0  0.5539166960455458  0.2917103391153061  0.3434958060467332  1.0000
  S   S2        1.0  0.05719143791172939  0.9038285466251752  0.27454769437934085  1.0000
  S   S3        1.0  0.49382606727638384  0.7786333195956534  0.7618351301015649  1.0000
  S   S4        1.0  0.9244684837345432  0.11845785436643166  0.8086239749148638  1.0000
  O   O1        1.0  0.0873114569322897  0.8216172108747213  0.07695563165176442  1.0000
  O   O2        1.0  0.37954158628759394  0.3677657284245338  0.26853944152701575  1.0000
  O   O3        1.0  0.09706038489778215  0.13916132919322263  0.8227625961916764  1.0000
  O   O4        1.0  0.423720674765272  0.6384922577030911  0.9421696656817797  1.0000
  O   O5        1.0  0.6826093147505445  0.518550120021587  0.3194610891845573  1.0000
  O   O6        1.0  0.06248243980726113  0.25763040449678626  0.2557440586117318  1.0000
  O   O7        1.0  0.5708347403684266  0.4975585581043782  0.6849266388715871  1.0000
  O   O8        1.0  0.9103538293725354  0.2686659826320379  0.6156182315549332  1.0000
  O   O9        1.0  0.879126574467271  0.8058504354572003  0.8153979737202548  1.0000
  O   O10       1.0  0.39922458376089276  0.85943869720151  0.5886410475816404  1.0000
  O   O11       1.0  0.16101058031353788  0.7344537657206155  0.4227087235406959  1.0000
  O   O12       1.0  0.5780980823875432  0.07479295875049867  0.20292936921465754  1.0000
data_image51
_chemical_formula_structural       Cd4S4O12
_chemical_formula_sum              "Cd4 S4 O12"
_cell_length_a       9.025715
_cell_length_b       4.573479000000001
_cell_length_c       7.283293351582442
_cell_angle_alpha    88.92985652425466
_cell_angle_beta     90.0
_cell_angle_gamma    90.0

_space_group_name_H-M_alt    "P 1"
_space_group_IT_number       1

loop_
  _space_group_symop_operation_xyz
  'x, y, z'

loop_
  _atom_site_type_symbol
  _atom_site_label
  _atom_site_symmetry_multiplicity
  _atom_site_fract_x
  _atom_site_fract_y
  _atom_site_fract_z
  _atom_site_occupancy
  Cd  Cd1       1.0  0.7436395164704578  0.9283709645407568  0.4136616196892836  1.0000
  Cd  Cd2       1.0  0.23365719130719645  0.3286867065027686  0.034809889102923944  1.0000
  Cd  Cd3       1.0  0.20785763580109823  0.35212494059091864  0.5055758588161864  1.0000
  Cd  Cd4       1.0  0.7841856102701791  0.4159217215044747  0.9789731604297892  1.0000
  S   S1        1.0  0.5498829770412512  0.32341004960444925  0.30179995770967966  1.0000
  S   S2        1.0  0.01608256577267221  0.7978998579547677  0.30385977804159253  1.0000
  S   S3        1.0  0.49966747022047886  0.744551498108463  0.809093615083487  1.0000
  S   S4        1.0  0.957006637438234  0.13553818227569017  0.7854432152849581  1.0000
  O   O1        1.0  0.054521995747234264  0.6058036502617682  0.15100525814045604  1.0000
  O   O2        1.0  0.3834656457035509  0.35038645823596176  0.28653451861755097  1.0000
  O   O3        1.0  0.1249635256221536  0.18291782681862373  0.797339456645633  1.0000
  O   O4        1.0  0.44822366174103445  0.4640935596129632  0.9148857332281678  1.0000
  O   O5        1.0  0.6104724240945847  0.6426640050627672  0.24807560922350644  1.0000
  O   O6        1.0  0.05513264182791945  0.11586579649470574  0.2658351177361595  1.0000
  O   O7        1.0  0.6123870744282605  0.602411038461661  0.6929211765235311  1.0000
  O   O8        1.0  0.9193871450175624  0.11023964353403848  0.591668406850634  1.0000
  O   O9        1.0  0.9037351862925331  0.867083140982384  0.9113891871772811  1.0000
  O   O10       1.0  0.36035968163955157  0.817452627223867  0.6845594332394571  1.0000
  O   O11       1.0  0.13528800216639159  0.7860592359355258  0.45225243519628217  1.0000
  O   O12       1.0  0.580088820233841  0.15251255371588857  0.12190370156754458  1.0000
data_image52
_chemical_formula_structural       Cd4S4O12
_chemical_formula_sum              "Cd4 S4 O12"
_cell_length_a       9.025715
_cell_length_b       4.573479000000001
_cell_length_c       7.283293351582442
_cell_angle_alpha    88.92985652425466
_cell_angle_beta     90.0
_cell_angle_gamma    90.0

_space_group_name_H-M_alt    "P 1"
_space_group_IT_number       1

loop_
  _space_group_symop_operation_xyz
  'x, y, z'

loop_
  _atom_site_type_symbol
  _atom_site_label
  _atom_site_symmetry_multiplicity
  _atom_site_fract_x
  _atom_site_fract_y
  _atom_site_fract_z
  _atom_site_occupancy
  Cd  Cd1       1.0  0.722869831977443  0.9172819470880491  0.4517303381304769  1.0000
  Cd  Cd2       1.0  0.2307323805149868  0.28920214612626743  0.0721581155627227  1.0000
  Cd  Cd3       1.0  0.21191085795221648  0.2647188219429267  0.5513786327037152  1.0000
  Cd  Cd4       1.0  0.794345918730355  0.5358415273608315  0.0035661358701144508  1.0000
  S   S1        1.0  0.5508344221405282  0.24518079559362768  0.24339638127796326  1.0000
  S   S2        1.0  0.04595013219455902  0.8126749393480949  0.20516478778951977  1.0000
  S   S3        1.0  0.47059851800566893  0.7766504552996584  0.7650344447917556  1.0000
  S   S4        1.0  0.9339904896913851  0.13599622238601605  0.7731412994810501  1.0000
  O   O1        1.0  0.16646406992545248  0.7998297693504949  0.06064302100118769  1.0000
  O   O2        1.0  0.38137816016940795  0.20361787922297409  0.2694667545722096  1.0000
  O   O3        1.0  0.11230999025477552  0.20135920990604814  0.8074247509982745  1.0000
  O   O4        1.0  0.41132736228154604  0.4457102411114786  0.8067787104582629  1.0000
  O   O5        1.0  0.6305066924948832  0.6029024810163945  0.23790490563022768  1.0000
  O   O6        1.0  0.9750325389744697  0.08344530531219521  0.19473446855911314  1.0000
  O   O7        1.0  0.6276351758232189  0.7278512093081078  0.7127335393630206  1.0000
  O   O8        1.0  0.9381139996834968  0.20632767579449007  0.5734927575310584  1.0000
  O   O9        1.0  0.9056798176618784  0.7705728728046528  0.7868306314357789  1.0000
  O   O10       1.0  0.39642926560989394  0.8986005163274696  0.6080471554607254  1.0000
  O   O11       1.0  0.13252980876643566  0.8094653364300479  0.39064377452170757  1.0000
  O   O12       1.0  0.6131793131681927  0.12895536525151427  0.06903506414923487  1.0000
data_image53
_chemical_formula_structural       Cd4S4O12
_chemical_formula_sum              "Cd4 S4 O12"
_cell_length_a       9.025715
_cell_length_b       4.573479000000001
_cell_length_c       7.283293351582442
_cell_angle_alpha    88.92985652425466
_cell_angle_beta     90.0
_cell_angle_gamma    90.0

_space_group_name_H-M_alt    "P 1"
_space_group_IT_number       1

loop_
  _space_group_symop_operation_xyz
  'x, y, z'

loop_
  _atom_site_type_symbol
  _atom_site_label
  _atom_site_symmetry_multiplicity
  _atom_site_fract_x
  _atom_site_fract_y
  _atom_site_fract_z
  _atom_site_occupancy
  Cd  Cd1       1.0  0.7039928421425634  0.8403724857481297  0.49974750177488136  1.0000
  Cd  Cd2       1.0  0.213378856458365  0.3113078548121991  0.980117516603777  1.0000
  Cd  Cd3       1.0  0.24726379046978705  0.26991484572533203  0.505950803883008  1.0000
  Cd  Cd4       1.0  0.7448296432013806  0.6068676124831344  0.01307179625396171  1.0000
  S   S1        1.0  0.5843627111794115  0.2840405106291526  0.28305269746902934  1.0000
  S   S2        1.0  0.07986322998565097  0.7250834656964297  0.22383325121104036  1.0000
  S   S3        1.0  0.47080468493468475  0.781508848081837  0.784938778204377  1.0000
  S   S4        1.0  0.9292548833850927  0.14108370073215704  0.7971640313975528  1.0000
  O   O1        1.0  0.2168254193893402  0.9297676485084883  0.17098786378027758  1.0000
  O   O2        1.0  0.44358282435142005  0.46682766836080564  0.23729850215462017  1.0000
  O   O3        1.0  0.14221626041819171  0.14027456334378804  0.7616707732508017  1.0000
  O   O4        1.0  0.3972761048739362  0.5034301949974598  0.7653990256862986  1.0000
  O   O5        1.0  0.7121123934843281  0.4829912625379569  0.31726540415253485  1.0000
  O   O6        1.0  0.9477762072289578  0.9238766169911802  0.2819911864845044  1.0000
  O   O7        1.0  0.6551458746771489  0.7266238638962619  0.7594039247115079  1.0000
  O   O8        1.0  0.8844885998818003  0.1564645193281453  0.6084788122351021  1.0000
  O   O9        1.0  0.9234614787042209  0.8283922021495242  0.8639578487110887  1.0000
  O   O10       1.0  0.4592284750944821  0.9164796914812382  0.582162796676826  1.0000
  O   O11       1.0  0.09766169410492503  0.6098237731495264  0.4081639171008596  1.0000
  O   O12       1.0  0.6340024673834292  0.12405021733068586  0.12069236407232718  1.0000
data_image54
_chemical_formula_structural       Cd4S4O12
_chemical_formula_sum              "Cd4 S4 O12"
_cell_length_a       9.025715
_cell_length_b       4.573479000000001
_cell_length_c       7.283293351582442
_cell_angle_alpha    88.92985652425466
_cell_angle_beta     90.0
_cell_angle_gamma    90.0

_space_group_name_H-M_alt    "P 1"
_space_group_IT_number       1

loop_
  _space_group_symop_operation_xyz
  'x, y, z'

loop_
  _atom_site_type_symbol
  _atom_site_label
  _atom_site_symmetry_multiplicity
  _atom_site_fract_x
  _atom_site_fract_y
  _atom_site_fract_z
  _atom_site_occupancy
  Cd  Cd1       1.0  0.7367927403274043  0.7640824863420167  0.4609463476057561  1.0000
  Cd  Cd2       1.0  0.15465507685362412  0.4139447038540068  0.9958042948269421  1.0000
  Cd  Cd3       1.0  0.2650783911552853  0.19719737302451237  0.4806427161653163  1.0000
  Cd  Cd4       1.0  0.7245374698436976  0.6933437742621494  0.06701785592759335  1.0000
  S   S1        1.0  0.6037844596616493  0.23781569742828224  0.26574777434354857  1.0000
  S   S2        1.0  0.10279929714295756  0.7572380064759637  0.24119900748019177  1.0000
  S   S3        1.0  0.4615580282202396  0.8617424740504662  0.8038142227521593  1.0000
  S   S4        1.0  0.9547598889630575  0.016670946277316762  0.756932837743153  1.0000
  O   O1        1.0  0.23587061578205049  0.9562210975073536  0.21404037215582655  1.0000
  O   O2        1.0  0.5272843653555975  0.5100900208851261  0.25602080177252573  1.0000
  O   O3        1.0  0.128183920341957  0.1381522597302801  0.7345054815808699  1.0000
  O   O4        1.0  0.3479276056907844  0.6463998609191804  0.8782396522112887  1.0000
  O   O5        1.0  0.7780005541361114  0.33354438489674254  0.314014951806348  1.0000
  O   O6        1.0  0.9338068828088546  0.8574018724594027  0.2224912086413959  1.0000
  O   O7        1.0  0.6193963962411504  0.7160750077258258  0.7970326980321054  1.0000
  O   O8        1.0  0.8359292598473795  0.1580463544766051  0.6401460843790141  1.0000
  O   O9        1.0  0.9631976496214006  0.6863443560765461  0.7302819643207499  1.0000
  O   O10       1.0  0.4529829641698391  0.844413660429941  0.5821162909426933  1.0000
  O   O11       1.0  0.1526974378015657  0.6601568311426743  0.4215203402815931  1.0000
  O   O12       1.0  0.6206875970146093  0.13496830312006242  0.07886963662557753  1.0000
data_image55
_chemical_formula_structural       Cd4S4O12
_chemical_formula_sum              "Cd4 S4 O12"
_cell_length_a       9.025715
_cell_length_b       4.573479000000001
_cell_length_c       7.283293351582442
_cell_angle_alpha    88.92985652425466
_cell_angle_beta     90.0
_cell_angle_gamma    90.0

_space_group_name_H-M_alt    "P 1"
_space_group_IT_number       1

loop_
  _space_group_symop_operation_xyz
  'x, y, z'

loop_
  _atom_site_type_symbol
  _atom_site_label
  _atom_site_symmetry_multiplicity
  _atom_site_fract_x
  _atom_site_fract_y
  _atom_site_fract_z
  _atom_site_occupancy
  Cd  Cd1       1.0  0.7385400344322528  0.7614059720181863  0.47948683352917276  1.0000
  Cd  Cd2       1.0  0.16663977096390167  0.4733862949220018  0.9593673078957766  1.0000
  Cd  Cd3       1.0  0.2558723964560352  0.18218034274177258  0.49456471578565075  1.0000
  Cd  Cd4       1.0  0.7410680217699792  0.733229668120385  0.052654998357058114  1.0000
  S   S1        1.0  0.5950075176424653  0.14578453063383323  0.23479824810739894  1.0000
  S   S2        1.0  0.09684775758185908  0.7942293454986915  0.19206999561713453  1.0000
  S   S3        1.0  0.4931363365466079  0.8086363571799678  0.7891120192439577  1.0000
  S   S4        1.0  0.935149025530756  0.968871119637031  0.8224431831491162  1.0000
  O   O1        1.0  0.12282470046462146  0.12271768715191622  0.1991882863827047  1.0000
  O   O2        1.0  0.49382531556085263  0.29233395210824037  0.4193750545662052  1.0000
  O   O3        1.0  0.10205399046815111  0.09017912724770327  0.8126291542154439  1.0000
  O   O4        1.0  0.39641152523048434  0.5017736685745233  0.8592464890072632  1.0000
  O   O5        1.0  0.7415462831840212  0.33047175916359794  0.30644291667994233  1.0000
  O   O6        1.0  0.9302541002369489  0.7916180834061486  0.25965863498431335  1.0000
  O   O7        1.0  0.6687770058465043  0.6863695351815193  0.7821127159222863  1.0000
  O   O8        1.0  0.8147514919845688  0.15926484774005822  0.7012352903512533  1.0000
  O   O9        1.0  0.9717837063659279  0.7062163137249193  0.692508425080148  1.0000
  O   O10       1.0  0.438725537556182  0.8585349000533214  0.6062608474432148  1.0000
  O   O11       1.0  0.17353157823033538  0.6350462973462063  0.3707023858218689  1.0000
  O   O12       1.0  0.5866775482244653  0.23306729504110196  0.036435025680472535  1.0000
data_image56
_chemical_formula_structural       Cd4S4O12
_chemical_formula_sum              "Cd4 S4 O12"
_cell_length_a       9.025715
_cell_length_b       4.573479000000001
_cell_length_c       7.283293351582442
_cell_angle_alpha    88.92985652425466
_cell_angle_beta     90.0
_cell_angle_gamma    90.0

_space_group_name_H-M_alt    "P 1"
_space_group_IT_number       1

loop_
  _space_group_symop_operation_xyz
  'x, y, z'

loop_
  _atom_site_type_symbol
  _atom_site_label
  _atom_site_symmetry_multiplicity
  _atom_site_fract_x
  _atom_site_fract_y
  _atom_site_fract_z
  _atom_site_occupancy
  Cd  Cd1       1.0  0.7535077561723942  0.7815320978407739  0.5541114793701519  1.0000
  Cd  Cd2       1.0  0.1496634069858271  0.47892823441937304  0.9330284784829384  1.0000
  Cd  Cd3       1.0  0.2563978706869539  0.2037350325419632  0.4668806801173624  1.0000
  Cd  Cd4       1.0  0.7612227150120645  0.7405423676923633  0.017053378957517795  1.0000
  S   S1        1.0  0.563418222331953  0.15185216884454253  0.24972773260819603  1.0000
  S   S2        1.0  0.10791736476439996  0.7564600892949612  0.24116291845866894  1.0000
  S   S3        1.0  0.4488059820246104  0.6889791597627807  0.7840360758379584  1.0000
  S   S4        1.0  0.9763635906480213  0.06794080855559512  0.8508234641917815  1.0000
  O   O1        1.0  0.16580005857030367  0.07211629431040167  0.16469932045892363  1.0000
  O   O2        1.0  0.4333742353582771  0.3482179370214134  0.21306196407436867  1.0000
  O   O3        1.0  0.14956483847629612  0.022533895059119378  0.7730358360918688  1.0000
  O   O4        1.0  0.3440351399475892  0.43172085205288174  0.7290367887496738  1.0000
  O   O5        1.0  0.6382753868910434  0.29304965918504045  0.4278144375189436  1.0000
  O   O6        1.0  0.933945719323764  0.753331491507847  0.21012020473452994  1.0000
  O   O7        1.0  0.5872607423899284  0.5475588570269486  0.8420021962238678  1.0000
  O   O8        1.0  0.8992669601928245  0.2008952524846388  0.6515904168813327  1.0000
  O   O9        1.0  0.907110661159051  0.7314518582666016  0.8387850873553913  1.0000
  O   O10       1.0  0.4848564435180267  0.806469221522332  0.5886709647632733  1.0000
  O   O11       1.0  0.1458275265444842  0.7107304455060163  0.45090990375020407  1.0000
  O   O12       1.0  0.6710141340362795  0.21096748115569272  0.08837901477966344  1.0000
data_image57
_chemical_formula_structural       Cd4S4O12
_chemical_formula_sum              "Cd4 S4 O12"
_cell_length_a       9.025715
_cell_length_b       4.573479000000001
_cell_length_c       7.283293351582442
_cell_angle_alpha    88.92985652425466
_cell_angle_beta     90.0
_cell_angle_gamma    90.0

_space_group_name_H-M_alt    "P 1"
_space_group_IT_number       1

loop_
  _space_group_symop_operation_xyz
  'x, y, z'

loop_
  _atom_site_type_symbol
  _atom_site_label
  _atom_site_symmetry_multiplicity
  _atom_site_fract_x
  _atom_site_fract_y
  _atom_site_fract_z
  _atom_site_occupancy
  Cd  Cd1       1.0  0.7243728505975096  0.7504096141792862  0.541648558636808  1.0000
  Cd  Cd2       1.0  0.16497571415408555  0.485873457468197  0.9628259333450032  1.0000
  Cd  Cd3       1.0  0.2740439476469521  0.1963955852726628  0.42653078466767935  1.0000
  Cd  Cd4       1.0  0.7483730110031052  0.689458497792682  0.06129035818144768  1.0000
  S   S1        1.0  0.5661956067249903  0.25360270924607725  0.2803224837947555  1.0000
  S   S2        1.0  0.022048445004824776  0.7153780149183827  0.25317820353742393  1.0000
  S   S3        1.0  0.466581575337684  0.8094246242320272  0.7641031811129126  1.0000
  S   S4        1.0  0.019848733559478804  0.018151496467369358  0.749060767946721  1.0000
  O   O1        1.0  0.03426458703664337  0.027181094713953025  0.2083187351768078  1.0000
  O   O2        1.0  0.4843509490282348  0.5253077270635435  0.27241449542815444  1.0000
  O   O3        1.0  0.1609561591949285  0.13485827835768902  0.6693656972003367  1.0000
  O   O4        1.0  0.38588277018364786  0.4862264118631996  0.7440824055012684  1.0000
  O   O5        1.0  0.6698528191558227  0.3054245727550444  0.45154944922302054  1.0000
  O   O6        1.0  0.8570057148574429  0.6847553440108032  0.32662442318196533  1.0000
  O   O7        1.0  0.6297823246067977  0.6979420057618075  0.8058827213956112  1.0000
  O   O8        1.0  0.9031224562050966  0.06851558442418537  0.5892122991408465  1.0000
  O   O9        1.0  0.0004102078539152121  0.6998452058695845  0.8275913551419508  1.0000
  O   O10       1.0  0.49194849123722817  0.9735833754469713  0.5755283150131664  1.0000
  O   O11       1.0  0.14518594457077658  0.6390964544018772  0.40237289032201146  1.0000
  O   O12       1.0  0.6998888898520409  0.22483208621466824  0.11392232924932749  1.0000
data_image58
_chemical_formula_structural       Cd4S4O12
_chemical_formula_sum              "Cd4 S4 O12"
_cell_length_a       9.025715
_cell_length_b       4.573479000000001
_cell_length_c       7.283293351582442
_cell_angle_alpha    88.92985652425466
_cell_angle_beta     90.0
_cell_angle_gamma    90.0

_space_group_name_H-M_alt    "P 1"
_space_group_IT_number       1

loop_
  _space_group_symop_operation_xyz
  'x, y, z'

loop_
  _atom_site_type_symbol
  _atom_site_label
  _atom_site_symmetry_multiplicity
  _atom_site_fract_x
  _atom_site_fract_y
  _atom_site_fract_z
  _atom_site_occupancy
  Cd  Cd1       1.0  0.6984040892568666  0.8604462950415019  0.4903676285994133  1.0000
  Cd  Cd2       1.0  0.1913507095687139  0.40352388869511024  0.991474703342998  1.0000
  Cd  Cd3       1.0  0.2807825063439848  0.1439758854580144  0.4394660724013277  1.0000
  Cd  Cd4       1.0  0.7108919569187873  0.6322892125093147  0.012021770525258546  1.0000
  S   S1        1.0  0.5421070288478094  0.34874784093129385  0.28482121362044305  1.0000
  S   S2        1.0  0.07736855520878023  0.7390858514564248  0.20853952397932682  1.0000
  S   S3        1.0  0.4851120688941654  0.8468831031293561  0.8448328677157574  1.0000
  S   S4        1.0  0.001878594031928138  0.01925835113762013  0.8182183778706266  1.0000
  O   O1        1.0  0.13689191586148608  0.0486594230857722  0.15568468475919106  1.0000
  O   O2        1.0  0.5553849873296386  0.7094429490559094  0.25934878603082556  1.0000
  O   O3        1.0  0.16585395125765404  0.8689931502567503  0.7475325476740416  1.0000
  O   O4        1.0  0.44476222070848626  0.5448170341221127  0.9215039320250632  1.0000
  O   O5        1.0  0.6232201906373929  0.3315038151325651  0.4451250047260831  1.0000
  O   O6        1.0  0.9079951589158262  0.7723374514430073  0.23116654237966555  1.0000
  O   O7        1.0  0.6562239536532999  0.8603226685786366  0.7918545164049187  1.0000
  O   O8        1.0  0.9634577539008395  0.11501291572063832  0.6256569680815032  1.0000
  O   O9        1.0  0.9080297096802012  0.745702065243752  0.832345774610951  1.0000
  O   O10       1.0  0.43186464866535107  0.826861763484815  0.6487300111129668  1.0000
  O   O11       1.0  0.18270392078621875  0.6779407332744218  0.3981575282121453  1.0000
  O   O12       1.0  0.6264033119979844  0.21688746559761252  0.12701621722901732  1.0000
data_image59
_chemical_formula_structural       Cd4S4O12
_chemical_formula_sum              "Cd4 S4 O12"
_cell_length_a       9.025715
_cell_length_b       4.573479000000001
_cell_length_c       7.283293351582442
_cell_angle_alpha    88.92985652425466
_cell_angle_beta     90.0
_cell_angle_gamma    90.0

_space_group_name_H-M_alt    "P 1"
_space_group_IT_number       1

loop_
  _space_group_symop_operation_xyz
  'x, y, z'

loop_
  _atom_site_type_symbol
  _atom_site_label
  _atom_site_symmetry_multiplicity
  _atom_site_fract_x
  _atom_site_fract_y
  _atom_site_fract_z
  _atom_site_occupancy
  Cd  Cd1       1.0  0.7251572195517983  0.9142706256890615  0.4682072156437369  1.0000
  Cd  Cd2       1.0  0.2170979731585676  0.44307812517098394  0.9162087248852682  1.0000
  Cd  Cd3       1.0  0.25309560567712  0.1828094051090459  0.5205326260080417  1.0000
  Cd  Cd4       1.0  0.7484266235392554  0.5656319008002526  0.030923730988349662  1.0000
  S   S1        1.0  0.5335432422266145  0.3576361966677269  0.2785004301365994  1.0000
  S   S2        1.0  0.06555238563185986  0.759380845522381  0.22285033118186987  1.0000
  S   S3        1.0  0.44392617945480145  0.8897997840645687  0.7148413346668365  1.0000
  S   S4        1.0  0.9625209045884444  0.8680943672648638  0.8287100471843933  1.0000
  O   O1        1.0  0.10305258154443075  0.06442270875920264  0.29829786463720126  1.0000
  O   O2        1.0  0.5629380441315289  0.6677032154046368  0.23138279364922454  1.0000
  O   O3        1.0  0.15115043453283147  0.006983608651832322  0.8786213983935586  1.0000
  O   O4        1.0  0.3899645662176291  0.8008144408849586  0.9000718916113958  1.0000
  O   O5        1.0  0.6287166817879891  0.3292778482277323  0.4731845458901831  1.0000
  O   O6        1.0  0.8940232940210966  0.7789909481977555  0.2149963896447878  1.0000
  O   O7        1.0  0.6107078527936073  0.7797268956383483  0.7488862428475284  1.0000
  O   O8        1.0  0.9065246153651336  0.892641759052584  0.6513742598412703  1.0000
  O   O9        1.0  0.9797421420434482  0.5154266813426422  0.857655765820114  1.0000
  O   O10       1.0  0.4027867835766401  0.7951719978358681  0.5279473029279225  1.0000
  O   O11       1.0  0.11643622923204684  0.6208784835657701  0.43567441013782054  1.0000
  O   O12       1.0  0.6303112337700384  0.15129790432279822  0.16374068567300404  1.0000
data_image60
_chemical_formula_structural       Cd4S4O12
_chemical_formula_sum              "Cd4 S4 O12"
_cell_length_a       9.025715
_cell_length_b       4.573479000000001
_cell_length_c       7.283293351582442
_cell_angle_alpha    88.92985652425466
_cell_angle_beta     90.0
_cell_angle_gamma    90.0

_space_group_name_H-M_alt    "P 1"
_space_group_IT_number       1

loop_
  _space_group_symop_operation_xyz
  'x, y, z'

loop_
  _atom_site_type_symbol
  _atom_site_label
  _atom_site_symmetry_multiplicity
  _atom_site_fract_x
  _atom_site_fract_y
  _atom_site_fract_z
  _atom_site_occupancy
  Cd  Cd1       1.0  0.7496330267994435  0.9018353010673845  0.45723947225636535  1.0000
  Cd  Cd2       1.0  0.22014355257550494  0.4247395811277452  0.886133735119301  1.0000
  Cd  Cd3       1.0  0.22998190238956015  0.17199745541447273  0.5309820690667426  1.0000
  Cd  Cd4       1.0  0.7483080097527215  0.6071061577959409  0.027857894570974207  1.0000
  S   S1        1.0  0.5330885959682016  0.36125377689345417  0.2834447854230157  1.0000
  S   S2        1.0  0.09072657707185394  0.7233625248714713  0.2570274445798268  1.0000
  S   S3        1.0  0.49684269458848035  0.8847497198788116  0.7940268142352136  1.0000
  S   S4        1.0  0.9491919625056622  0.9237658893655287  0.8581665224726135  1.0000
  O   O1        1.0  0.11510179501544404  0.03873484369580216  0.21562943657085348  1.0000
  O   O2        1.0  0.4736949855766453  0.6649181641066791  0.28593567404376  1.0000
  O   O3        1.0  0.13755291311244286  0.006558665202263347  0.863765381147089  1.0000
  O   O4        1.0  0.3706377490445941  0.7131411574695034  0.9141842377212018  1.0000
  O   O5        1.0  0.6950187108258714  0.35247761177368386  0.36171603075843317  1.0000
  O   O6        1.0  0.909396279726949  0.6804316299196459  0.2848080822606366  1.0000
  O   O7        1.0  0.6013934281676939  0.6826257622545353  0.715241319493922  1.0000
  O   O8        1.0  0.9069903878170174  0.9609212379757025  0.6705243423347933  1.0000
  O   O9        1.0  0.9340799577842257  0.5201707778877689  0.8541426606612752  1.0000
  O   O10       1.0  0.41430275225119395  0.9037673288391498  0.5876715972976183  1.0000
  O   O11       1.0  0.128598263176804  0.5872738627184809  0.46963274263712146  1.0000
  O   O12       1.0  0.5238230200667111  0.24646158027565712  0.09143292914852445  1.0000
data_image61
_chemical_formula_structural       Cd4S4O12
_chemical_formula_sum              "Cd4 S4 O12"
_cell_length_a       9.025715
_cell_length_b       4.573479000000001
_cell_length_c       7.283293351582442
_cell_angle_alpha    88.92985652425466
_cell_angle_beta     90.0
_cell_angle_gamma    90.0

_space_group_name_H-M_alt    "P 1"
_space_group_IT_number       1

loop_
  _space_group_symop_operation_xyz
  'x, y, z'

loop_
  _atom_site_type_symbol
  _atom_site_label
  _atom_site_symmetry_multiplicity
  _atom_site_fract_x
  _atom_site_fract_y
  _atom_site_fract_z
  _atom_site_occupancy
  Cd  Cd1       1.0  0.7252425806746244  0.8656454595253431  0.40811732603788825  1.0000
  Cd  Cd2       1.0  0.19577733141470738  0.43831464255884284  0.9533417476116898  1.0000
  Cd  Cd3       1.0  0.22008452311696677  0.04111479093969208  0.5372242867075501  1.0000
  Cd  Cd4       1.0  0.7282070123569134  0.5904996005542706  0.0076501931577792615  1.0000
  S   S1        1.0  0.5238920012693524  0.43713485468181473  0.3419176887298423  1.0000
  S   S2        1.0  0.12518404333122923  0.6388211164106841  0.26940231344414156  1.0000
  S   S3        1.0  0.5694823475975616  0.007398078638291006  0.8281935329979322  1.0000
  S   S4        1.0  0.9369040612850276  0.9253225379056953  0.7655606456020732  1.0000
  O   O1        1.0  0.1847975756330491  0.9693513815306865  0.2503243333762949  1.0000
  O   O2        1.0  0.4857962272782047  0.7701316209495327  0.31755878902128587  1.0000
  O   O3        1.0  0.09142608503038585  0.012231567403872391  0.8157874746285521  1.0000
  O   O4        1.0  0.44421752799967623  0.8777694970530475  0.9120709229648172  1.0000
  O   O5        1.0  0.7038233030244502  0.42919100100271623  0.3373497832812546  1.0000
  O   O6        1.0  0.9581773170035406  0.6422923351417094  0.23212610688150306  1.0000
  O   O7        1.0  0.6598341488754704  0.7854971384690954  0.7281259767453291  1.0000
  O   O8        1.0  0.9344592402836149  0.07745611691710397  0.5731104026782982  1.0000
  O   O9        1.0  0.9182798148361455  0.6096953882323695  0.7705901412521527  1.0000
  O   O10       1.0  0.5254099641446394  0.24244051776964937  0.7249629692135664  1.0000
  O   O11       1.0  0.18236810782274068  0.5372145449530192  0.46040428581670334  1.0000
  O   O12       1.0  0.512160582942361  0.3654500933251432  0.1383815189352435  1.0000
data_image62
_chemical_formula_structural       Cd4S4O12
_chemical_formula_sum              "Cd4 S4 O12"
_cell_length_a       9.025715
_cell_length_b       4.573479000000001
_cell_length_c       7.283293351582442
_cell_angle_alpha    88.92985652425466
_cell_angle_beta     90.0
_cell_angle_gamma    90.0

_space_group_name_H-M_alt    "P 1"
_space_group_IT_number       1

loop_
  _space_group_symop_operation_xyz
  'x, y, z'

loop_
  _atom_site_type_symbol
  _atom_site_label
  _atom_site_symmetry_multiplicity
  _atom_site_fract_x
  _atom_site_fract_y
  _atom_site_fract_z
  _atom_site_occupancy
  Cd  Cd1       1.0  0.7510748938637818  0.9080951977830584  0.3827398792658928  1.0000
  Cd  Cd2       1.0  0.23081590827561624  0.39895038551862333  0.9591937846992268  1.0000
  Cd  Cd3       1.0  0.21748649177303356  0.9920049106843832  0.5730365514997464  1.0000
  Cd  Cd4       1.0  0.7439854782036082  0.5955738177617538  0.016907318838177643  1.0000
  S   S1        1.0  0.5113130679624981  0.3561979607348915  0.2988861925892675  1.0000
  S   S2        1.0  0.11432267543192101  0.5773841664958753  0.26667545844443113  1.0000
  S   S3        1.0  0.4837432865335795  0.1282515893152174  0.8078305834763619  1.0000
  S   S4        1.0  0.939835285920268  0.047695424196554946  0.7915777241084916  1.0000
  O   O1        1.0  0.19048848178246547  0.8954318334785792  0.2668442302645961  1.0000
  O   O2        1.0  0.5695804004906251  0.5364314612150028  0.43252884108882494  1.0000
  O   O3        1.0  0.10130792449819591  0.07679977755504092  0.8789978367154013  1.0000
  O   O4        1.0  0.39627304953641274  0.8390577469064235  0.8367656863249894  1.0000
  O   O5        1.0  0.6455662022289438  0.24023963673638526  0.16110703483639235  1.0000
  O   O6        1.0  0.9538734467897092  0.6477707894188289  0.2401565771615808  1.0000
  O   O7        1.0  0.6181104465239582  0.10333853464136732  0.6658321037347041  1.0000
  O   O8        1.0  0.9424046951274765  0.05665199997505077  0.5636683294699999  1.0000
  O   O9        1.0  0.9308024141001724  0.6948738033464021  0.840304182631442  1.0000
  O   O10       1.0  0.36471696718886987  0.35809326106389205  0.7159938035398957  1.0000
  O   O11       1.0  0.14958495844214995  0.42395745653343014  0.44311062818078467  1.0000
  O   O12       1.0  0.43509960381593316  0.5307971153400244  0.1362522322627173  1.0000
data_image63
_chemical_formula_structural       Cd4S4O12
_chemical_formula_sum              "Cd4 S4 O12"
_cell_length_a       9.025715
_cell_length_b       4.573479000000001
_cell_length_c       7.283293351582442
_cell_angle_alpha    88.92985652425466
_cell_angle_beta     90.0
_cell_angle_gamma    90.0

_space_group_name_H-M_alt    "P 1"
_space_group_IT_number       1

loop_
  _space_group_symop_operation_xyz
  'x, y, z'

loop_
  _atom_site_type_symbol
  _atom_site_label
  _atom_site_symmetry_multiplicity
  _atom_site_fract_x
  _atom_site_fract_y
  _atom_site_fract_z
  _atom_site_occupancy
  Cd  Cd1       1.0  0.7523375479825634  0.8866172664046215  0.4373384125647548  1.0000
  Cd  Cd2       1.0  0.2355241355701715  0.5657571351529594  0.9875525040958031  1.0000
  Cd  Cd3       1.0  0.24081265809609498  0.9214125717796104  0.5459417894032387  1.0000
  Cd  Cd4       1.0  0.7130771984754983  0.6676763408029917  0.007208063506809026  1.0000
  S   S1        1.0  0.5521410175824649  0.3513403981186876  0.25194482059773243  1.0000
  S   S2        1.0  0.12610362867346162  0.5355252670260965  0.304674718929393  1.0000
  S   S3        1.0  0.48697058288804523  0.14398955957266413  0.7258946887555435  1.0000
  S   S4        1.0  0.9349248809400655  0.8934220675444403  0.8043414345350656  1.0000
  O   O1        1.0  0.18394329422771305  0.8473048211281649  0.26688158464640555  1.0000
  O   O2        1.0  0.705792724659887  0.43585456586976623  0.3311695281569823  1.0000
  O   O3        1.0  0.08878534093902524  0.7560395681754313  0.7936721279729243  1.0000
  O   O4        1.0  0.3901818497492557  0.9133224782614258  0.8532182376592257  1.0000
  O   O5        1.0  0.5857966254631606  0.10779734272437258  0.1459105176388507  1.0000
  O   O6        1.0  0.9465383399464842  0.5667948355426216  0.29131351653690846  1.0000
  O   O7        1.0  0.4978812176273184  0.993040718311337  0.5489239655683888  1.0000
  O   O8        1.0  0.9031177156076375  0.07288645166879015  0.6529763776211297  1.0000
  O   O9        1.0  0.8597141163398085  0.5824511642146286  0.7542562840650613  1.0000
  O   O10       1.0  0.39681931198222475  0.4294747205180873  0.7260709855762733  1.0000
  O   O11       1.0  0.1505689596493045  0.44629236419106916  0.5073261229348959  1.0000
  O   O12       1.0  0.4920743529150063  0.5912242193553312  0.13846240071467064  1.0000
data_image64
_chemical_formula_structural       Cd4S4O12
_chemical_formula_sum              "Cd4 S4 O12"
_cell_length_a       9.025715
_cell_length_b       4.573479000000001
_cell_length_c       7.283293351582442
_cell_angle_alpha    88.92985652425466
_cell_angle_beta     90.0
_cell_angle_gamma    90.0

_space_group_name_H-M_alt    "P 1"
_space_group_IT_number       1

loop_
  _space_group_symop_operation_xyz
  'x, y, z'

loop_
  _atom_site_type_symbol
  _atom_site_label
  _atom_site_symmetry_multiplicity
  _atom_site_fract_x
  _atom_site_fract_y
  _atom_site_fract_z
  _atom_site_occupancy
  Cd  Cd1       1.0  0.7730836555925736  0.8906514531047083  0.45268879643590804  1.0000
  Cd  Cd2       1.0  0.2649936561488504  0.6279713525723082  0.9600583814854904  1.0000
  Cd  Cd3       1.0  0.2717137536149667  0.8859786328691792  0.5273255415228223  1.0000
  Cd  Cd4       1.0  0.6747673070186708  0.7222137151459117  0.009534541409690345  1.0000
  S   S1        1.0  0.5087961605725332  0.30630952738262057  0.27987204433644847  1.0000
  S   S2        1.0  0.08630205809375557  0.4593297891140138  0.29534329163019024  1.0000
  S   S3        1.0  0.4937699874482373  0.16818170246641984  0.7857540347129492  1.0000
  S   S4        1.0  0.928611803630422  0.903442846548594  0.8107711858747075  1.0000
  O   O1        1.0  0.2028970705693951  0.6971313370930149  0.2501236579150359  1.0000
  O   O2        1.0  0.6394997074315131  0.4584380649221269  0.3285012708178296  1.0000
  O   O3        1.0  0.09172895779604458  0.7440283160950205  0.757461650676891  1.0000
  O   O4        1.0  0.3298052885150184  0.05483528087823886  0.8337642290445345  1.0000
  O   O5        1.0  0.548848094458732  0.961483208535191  0.27047681256500145  1.0000
  O   O6        1.0  0.9506581992285636  0.579905166921683  0.371517577583433  1.0000
  O   O7        1.0  0.5287369773694325  0.9339023866305536  0.6221746842902401  1.0000
  O   O8        1.0  0.8821200600549675  0.12315065780945966  0.6475282197153795  1.0000
  O   O9        1.0  0.7836668494605007  0.6696493278107378  0.7983875255898362  1.0000
  O   O10       1.0  0.45383331788470693  0.4484572588984097  0.6739253398149287  1.0000
  O   O11       1.0  0.14725350485058622  0.2696618415156064  0.4358925088690154  1.0000
  O   O12       1.0  0.5036718735009876  0.37500806847114465  0.04750550654218468  1.0000
data_image65
_chemical_formula_structural       Cd4S4O12
_chemical_formula_sum              "Cd4 S4 O12"
_cell_length_a       9.025715
_cell_length_b       4.573479000000001
_cell_length_c       7.283293351582442
_cell_angle_alpha    88.92985652425466
_cell_angle_beta     90.0
_cell_angle_gamma    90.0

_space_group_name_H-M_alt    "P 1"
_space_group_IT_number       1

loop_
  _space_group_symop_operation_xyz
  'x, y, z'

loop_
  _atom_site_type_symbol
  _atom_site_label
  _atom_site_symmetry_multiplicity
  _atom_site_fract_x
  _atom_site_fract_y
  _atom_site_fract_z
  _atom_site_occupancy
  Cd  Cd1       1.0  0.7578279314270021  0.8174949054448755  0.44944264745681944  1.0000
  Cd  Cd2       1.0  0.27845180615909504  0.6071514191624026  0.9256995875055404  1.0000
  Cd  Cd3       1.0  0.24800074178524956  0.7869464237555409  0.49718446911510733  1.0000
  Cd  Cd4       1.0  0.650756982682603  0.7728186852056302  0.03350643956498334  1.0000
  S   S1        1.0  0.5735108397934146  0.35332796985384035  0.34161912228238445  1.0000
  S   S2        1.0  0.10707700617457715  0.49734680899167366  0.2763175935760801  1.0000
  S   S3        1.0  0.4549428429690464  0.11505525406402572  0.8016510443224788  1.0000
  S   S4        1.0  0.9465822639206819  0.07703666652112087  0.790429064509705  1.0000
  O   O1        1.0  0.2447011785732114  0.6906827428469194  0.20148011530716872  1.0000
  O   O2        1.0  0.747731398350307  0.33963731003763314  0.3008895706307195  1.0000
  O   O3        1.0  0.05594169427689068  0.8269973544127486  0.762601842308462  1.0000
  O   O4        1.0  0.300913614055426  0.07720219093302205  0.9082466744517866  1.0000
  O   O5        1.0  0.5715528416444369  0.020322743971658452  0.292193901516529  1.0000
  O   O6        1.0  0.01372159054804672  0.7461083325176789  0.38952283348498307  1.0000
  O   O7        1.0  0.46303714477624164  0.9523984100690788  0.6306838568766987  1.0000
  O   O8        1.0  0.9290670970887153  0.18849644947230204  0.5999636425407752  1.0000
  O   O9        1.0  0.8171699302074082  0.8121695582988664  0.8472245248396825  1.0000
  O   O10       1.0  0.4526928743567419  0.47531811530964574  0.737187105755495  1.0000
  O   O11       1.0  0.18090951657652374  0.2814744040718817  0.4287384218531412  1.0000
  O   O12       1.0  0.5061791755704675  0.49057450708259037  0.1667548495090022  1.0000
data_image66
_chemical_formula_structural       Cd4S4O12
_chemical_formula_sum              "Cd4 S4 O12"
_cell_length_a       9.025715
_cell_length_b       4.573479000000001
_cell_length_c       7.283293351582442
_cell_angle_alpha    88.92985652425466
_cell_angle_beta     90.0
_cell_angle_gamma    90.0

_space_group_name_H-M_alt    "P 1"
_space_group_IT_number       1

loop_
  _space_group_symop_operation_xyz
  'x, y, z'

loop_
  _atom_site_type_symbol
  _atom_site_label
  _atom_site_symmetry_multiplicity
  _atom_site_fract_x
  _atom_site_fract_y
  _atom_site_fract_z
  _atom_site_occupancy
  Cd  Cd1       1.0  0.8166905644029663  0.7492261837098402  0.543977691020111  1.0000
  Cd  Cd2       1.0  0.242212446132825  0.6277798597200145  0.8496719963013338  1.0000
  Cd  Cd3       1.0  0.24728973489815917  0.81806884237143  0.4292623333178435  1.0000
  Cd  Cd4       1.0  0.6451418538606847  0.8929564438189468  0.08754955253730712  1.0000
  S   S1        1.0  0.5464984985476745  0.27148775331424363  0.3516590944614632  1.0000
  S   S2        1.0  0.06329142696639795  0.4319703270715052  0.22745950445199595  1.0000
  S   S3        1.0  0.46858466397591625  0.04027749818591242  0.8495605268472812  1.0000
  S   S4        1.0  0.982996953546533  0.10725213453260482  0.7769609927735527  1.0000
  O   O1        1.0  0.1613314624131046  0.6878731837308706  0.1201819373475728  1.0000
  O   O2        1.0  0.7079300930292804  0.4123524210505762  0.3371901617746375  1.0000
  O   O3        1.0  0.06793125155520632  0.7510533132100785  0.7045327081522057  1.0000
  O   O4        1.0  0.3337109337425397  0.1816103840300407  0.9240454162436536  1.0000
  O   O5        1.0  0.5832159215347348  0.899517947799786  0.3484055379416595  1.0000
  O   O6        1.0  0.9439733342165854  0.62094928996937  0.29883523709879584  1.0000
  O   O7        1.0  0.41310579025686  0.8343380056910683  0.6762072472250125  1.0000
  O   O8        1.0  0.9253187913538854  0.230689836607483  0.6150437199214356  1.0000
  O   O9        1.0  0.8313927963262839  0.8823441592989598  0.854259456194515  1.0000
  O   O10       1.0  0.5677399856175377  0.3284484080055583  0.7929684637955952  1.0000
  O   O11       1.0  0.1858615242142207  0.35948683208108784  0.39725537450196213  1.0000
  O   O12       1.0  0.4845676010318304  0.37594904459620704  0.17005707760661984  1.0000
data_image67
_chemical_formula_structural       Cd4S4O12
_chemical_formula_sum              "Cd4 S4 O12"
_cell_length_a       9.025715
_cell_length_b       4.573479000000001
_cell_length_c       7.283293351582442
_cell_angle_alpha    88.92985652425466
_cell_angle_beta     90.0
_cell_angle_gamma    90.0

_space_group_name_H-M_alt    "P 1"
_space_group_IT_number       1

loop_
  _space_group_symop_operation_xyz
  'x, y, z'

loop_
  _atom_site_type_symbol
  _atom_site_label
  _atom_site_symmetry_multiplicity
  _atom_site_fract_x
  _atom_site_fract_y
  _atom_site_fract_z
  _atom_site_occupancy
  Cd  Cd1       1.0  0.813521872289935  0.6926106605631848  0.5526944292671115  1.0000
  Cd  Cd2       1.0  0.20574333464679032  0.6581006072724058  0.8466847396334962  1.0000
  Cd  Cd3       1.0  0.2596531185525593  0.8728042718880202  0.429842622890209  1.0000
  Cd  Cd4       1.0  0.7097255946741989  0.8713380601663305  0.13773798319241837  1.0000
  S   S1        1.0  0.5517599707815087  0.27589143282849427  0.3319281989557421  1.0000
  S   S2        1.0  0.12677143377397984  0.45537083792052585  0.18219283317805704  1.0000
  S   S3        1.0  0.36165232321703633  0.04911027221453734  0.7873684731823335  1.0000
  S   S4        1.0  0.9358981329338173  0.05910214948055589  0.849382332178908  1.0000
  O   O1        1.0  0.23892376700080464  0.7009750319113417  0.13606490780298533  1.0000
  O   O2        1.0  0.6735904730234141  0.44807525020432976  0.2221445124425069  1.0000
  O   O3        1.0  0.03805372614227316  0.9524861566776059  0.6554282489272669  1.0000
  O   O4        1.0  0.29704844192042407  0.24795523134338593  0.6406268956017619  1.0000
  O   O5        1.0  0.6559641034551351  0.05872154519271988  0.4146475952448208  1.0000
  O   O6        1.0  0.9626176886630465  0.5866516041404553  0.237756244470997  1.0000
  O   O7        1.0  0.38439098229284624  0.7884085431280521  0.6600962782779535  1.0000
  O   O8        1.0  0.8509737738049986  0.2801280917802549  0.7310200544822028  1.0000
  O   O9        1.0  0.7903462917982635  0.770027130517601  0.9025337983827725  1.0000
  O   O10       1.0  0.5190557670442775  0.2001797682099935  0.8366460186802543  1.0000
  O   O11       1.0  0.2133907950316421  0.3577788310822386  0.3417098876201259  1.0000
  O   O12       1.0  0.48533914419678587  0.14208811667010043  0.1695789682430298  1.0000
data_image68
_chemical_formula_structural       Cd4S4O12
_chemical_formula_sum              "Cd4 S4 O12"
_cell_length_a       9.025715
_cell_length_b       4.573479000000001
_cell_length_c       7.283293351582442
_cell_angle_alpha    88.92985652425466
_cell_angle_beta     90.0
_cell_angle_gamma    90.0

_space_group_name_H-M_alt    "P 1"
_space_group_IT_number       1

loop_
  _space_group_symop_operation_xyz
  'x, y, z'

loop_
  _atom_site_type_symbol
  _atom_site_label
  _atom_site_symmetry_multiplicity
  _atom_site_fract_x
  _atom_site_fract_y
  _atom_site_fract_z
  _atom_site_occupancy
  Cd  Cd1       1.0  0.8299334138121837  0.6446487392493132  0.5423020208310667  1.0000
  Cd  Cd2       1.0  0.14850642914606355  0.5899276802698361  0.8279416342645942  1.0000
  Cd  Cd3       1.0  0.27818957665862787  0.9054026405101716  0.42750930293243106  1.0000
  Cd  Cd4       1.0  0.7328411196825386  0.7977067085632985  0.18221573224845722  1.0000
  S   S1        1.0  0.5894097037536329  0.18428782291732063  0.338750035232079  1.0000
  S   S2        1.0  0.08565188518869248  0.61205248925091  0.2002406789451465  1.0000
  S   S3        1.0  0.41069447091145556  0.2887731199857666  0.7465658771702537  1.0000
  S   S4        1.0  0.903914789200372  0.03507297348932117  0.8183443615385761  1.0000
  O   O1        1.0  0.18996160622300695  0.8241430853642878  0.09356588454103752  1.0000
  O   O2        1.0  0.672099239157179  0.3407369167773693  0.1803456424908841  1.0000
  O   O3        1.0  0.9921008229384258  0.8497318438646099  0.6734150769391074  1.0000
  O   O4        1.0  0.3858433234136234  0.36751890193582426  0.5397593112780935  1.0000
  O   O5        1.0  0.6737560247534248  0.990883024842755  0.4718415476697576  1.0000
  O   O6        1.0  0.004928567905702027  0.8516644978846193  0.3150075702676104  1.0000
  O   O7        1.0  0.3116957613293584  0.9226575281009509  0.7109629226598593  1.0000
  O   O8        1.0  0.8432617853171755  0.2856907342295709  0.707102731651123  1.0000
  O   O9        1.0  0.7707318338719839  0.8267898398434752  0.8127339067043235  1.0000
  O   O10       1.0  0.5710059169384867  0.3551774524032756  0.8482011729814758  1.0000
  O   O11       1.0  0.18234196096343108  0.4583491818076625  0.3434694246615453  1.0000
  O   O12       1.0  0.4899745753360666  0.9822783651980922  0.257909510966151  1.0000
data_image69
_chemical_formula_structural       Cd4S4O12
_chemical_formula_sum              "Cd4 S4 O12"
_cell_length_a       9.025715
_cell_length_b       4.573479000000001
_cell_length_c       7.283293351582442
_cell_angle_alpha    88.92985652425466
_cell_angle_beta     90.0
_cell_angle_gamma    90.0

_space_group_name_H-M_alt    "P 1"
_space_group_IT_number       1

loop_
  _space_group_symop_operation_xyz
  'x, y, z'

loop_
  _atom_site_type_symbol
  _atom_site_label
  _atom_site_symmetry_multiplicity
  _atom_site_fract_x
  _atom_site_fract_y
  _atom_site_fract_z
  _atom_site_occupancy
  Cd  Cd1       1.0  0.801637373946366  0.6848959575075793  0.5645585859004465  1.0000
  Cd  Cd2       1.0  0.15975300199012057  0.5398888607311905  0.793055527092514  1.0000
  Cd  Cd3       1.0  0.2645993877901882  0.9082258940811956  0.4108771493277507  1.0000
  Cd  Cd4       1.0  0.7699236945664664  0.7058305735285362  0.18841192649563854  1.0000
  S   S1        1.0  0.5436014567864365  0.06679165200759402  0.26969922219459436  1.0000
  S   S2        1.0  0.05644624367661343  0.6538754281157922  0.23234001086517198  1.0000
  S   S3        1.0  0.4410573326987874  0.43812860382613095  0.7714010433140075  1.0000
  S   S4        1.0  0.881548443939217  0.12560182080034604  0.8660871737406576  1.0000
  O   O1        1.0  0.21286465025278423  0.6847413353830589  0.14536110917395637  1.0000
  O   O2        1.0  0.6666058501429203  0.22682756858206532  0.1506702903067378  1.0000
  O   O3        1.0  0.04107777533876513  0.9963429578447353  0.8565981453674191  1.0000
  O   O4        1.0  0.4435434970221045  0.6618463576141909  0.6167541848052059  1.0000
  O   O5        1.0  0.6300757905483171  0.9882015909850179  0.4379480521999408  1.0000
  O   O6        1.0  0.9910982468958381  0.9707440301246252  0.25768562393550815  1.0000
  O   O7        1.0  0.2929427954746791  0.2125753732509684  0.6341621113188338  1.0000
  O   O8        1.0  0.9098586041169192  0.21742665307212183  0.656198072506401  1.0000
  O   O9        1.0  0.7687311768280009  0.8684932314374909  0.8768229859276683  1.0000
  O   O10       1.0  0.592766326862591  0.30971360150228855  0.8057373932715873  1.0000
  O   O11       1.0  0.13005494120778316  0.5160013783087211  0.43030634927338707  1.0000
  O   O12       1.0  0.4964645616646727  0.7747025012554283  0.17381254415696096  1.0000
data_image70
_chemical_formula_structural       Cd4S4O12
_chemical_formula_sum              "Cd4 S4 O12"
_cell_length_a       9.025715
_cell_length_b       4.573479000000001
_cell_length_c       7.283293351582442
_cell_angle_alpha    88.92985652425466
_cell_angle_beta     90.0
_cell_angle_gamma    90.0

_space_group_name_H-M_alt    "P 1"
_space_group_IT_number       1

loop_
  _space_group_symop_operation_xyz
  'x, y, z'

loop_
  _atom_site_type_symbol
  _atom_site_label
  _atom_site_symmetry_multiplicity
  _atom_site_fract_x
  _atom_site_fract_y
  _atom_site_fract_z
  _atom_site_occupancy
  Cd  Cd1       1.0  0.7753077324266644  0.6219798807484813  0.6276675226731862  1.0000
  Cd  Cd2       1.0  0.12500198970810955  0.579274245889689  0.7962364151059701  1.0000
  Cd  Cd3       1.0  0.28499892792032183  0.9867736791059379  0.4240560866098608  1.0000
  Cd  Cd4       1.0  0.7662780795372558  0.7117497382903406  0.15450946464426396  1.0000
  S   S1        1.0  0.5496834052641657  0.02284358024071201  0.2539247722868139  1.0000
  S   S2        1.0  0.034252779250082285  0.5680757549015952  0.2679104469793357  1.0000
  S   S3        1.0  0.4794187916598751  0.460174828504907  0.7871857055496662  1.0000
  S   S4        1.0  0.9380151110868298  0.14480223262194405  0.7601631722457478  1.0000
  O   O1        1.0  0.13724448335302197  0.3403883821970325  0.18730523088347498  1.0000
  O   O2        1.0  0.6918292841442719  0.18571095700128432  0.17854476957541168  1.0000
  O   O3        1.0  0.08878998549356316  0.07346804485843915  0.7261822548399984  1.0000
  O   O4        1.0  0.4500833655421436  0.7902698343939654  0.7864304725268849  1.0000
  O   O5        1.0  0.6129806396513205  0.8153704404821617  0.4080231481952004  1.0000
  O   O6        1.0  0.0709388853260617  0.8475761500973071  0.18773472452358234  1.0000
  O   O7        1.0  0.38548843692570856  0.3146434868996931  0.629745195053305  1.0000
  O   O8        1.0  0.8727915889416044  0.06539294768846937  0.5607846596332509  1.0000
  O   O9        1.0  0.8787762951736166  0.975249215436109  0.9390294203374745  1.0000
  O   O10       1.0  0.6301199780751422  0.3373139534215157  0.6753293046488357  1.0000
  O   O11       1.0  0.07055035027394561  0.5590293391841213  0.47633236829842523  1.0000
  O   O12       1.0  0.44267777925476093  0.8803604725063222  0.11624977674142861  1.0000
data_image71
_chemical_formula_structural       Cd4S4O12
_chemical_formula_sum              "Cd4 S4 O12"
_cell_length_a       9.025715
_cell_length_b       4.573479000000001
_cell_length_c       7.283293351582442
_cell_angle_alpha    88.92985652425466
_cell_angle_beta     90.0
_cell_angle_gamma    90.0

_space_group_name_H-M_alt    "P 1"
_space_group_IT_number       1

loop_
  _space_group_symop_operation_xyz
  'x, y, z'

loop_
  _atom_site_type_symbol
  _atom_site_label
  _atom_site_symmetry_multiplicity
  _atom_site_fract_x
  _atom_site_fract_y
  _atom_site_fract_z
  _atom_site_occupancy
  Cd  Cd1       1.0  0.7651143667364979  0.6129494413950841  0.6002108175286609  1.0000
  Cd  Cd2       1.0  0.17338078058787354  0.595189046598907  0.8129564501762006  1.0000
  Cd  Cd3       1.0  0.2405964419497071  0.004098362118922861  0.4832385930841482  1.0000
  Cd  Cd4       1.0  0.7865574626307718  0.7828123453704018  0.08355117770428122  1.0000
  S   S1        1.0  0.5586982675504254  0.9773302635128115  0.330005952402186  1.0000
  S   S2        1.0  0.009124128011438888  0.500561034363781  0.30599000548554633  1.0000
  S   S3        1.0  0.4617963835855941  0.45266037588830765  0.7911778544053297  1.0000
  S   S4        1.0  0.9248691353517453  0.07517472657676173  0.6966199679341079  1.0000
  O   O1        1.0  0.15690993861684843  0.3884907898021327  0.2523036403378006  1.0000
  O   O2        1.0  0.6577914522418835  0.16318667063625747  0.1778589522792182  1.0000
  O   O3        1.0  0.09776971380980254  0.12177525666671826  0.7511538136821927  1.0000
  O   O4        1.0  0.5088715800777579  0.7656340861266557  0.8257537363370866  1.0000
  O   O5        1.0  0.6477911364876794  0.6532461502847664  0.31537380622009153  1.0000
  O   O6        1.0  0.015594888091809261  0.7934562659007703  0.16657843752101462  1.0000
  O   O7        1.0  0.37487360803813136  0.44355446002547216  0.6113066740504549  1.0000
  O   O8        1.0  0.8859794267440176  0.06735849415576922  0.5004659841382098  1.0000
  O   O9        1.0  0.9164327045147266  0.6878284567519116  0.8412969478591933  1.0000
  O   O10       1.0  0.6102785663892344  0.2848250939068968  0.7273517043074882  1.0000
  O   O11       1.0  0.05583896554648377  0.6167049491683989  0.49204239253770055  1.0000
  O   O12       1.0  0.39921067754468725  0.9030421488728824  0.2594177366376282  1.0000
data_image72
_chemical_formula_structural       Cd4S4O12
_chemical_formula_sum              "Cd4 S4 O12"
_cell_length_a       9.025715
_cell_length_b       4.573479000000001
_cell_length_c       7.283293351582442
_cell_angle_alpha    88.92985652425466
_cell_angle_beta     90.0
_cell_angle_gamma    90.0

_space_group_name_H-M_alt    "P 1"
_space_group_IT_number       1

loop_
  _space_group_symop_operation_xyz
  'x, y, z'

loop_
  _atom_site_type_symbol
  _atom_site_label
  _atom_site_symmetry_multiplicity
  _atom_site_fract_x
  _atom_site_fract_y
  _atom_site_fract_z
  _atom_site_occupancy
  Cd  Cd1       1.0  0.76353586304062  0.6534753362818874  0.5386367502683047  1.0000
  Cd  Cd2       1.0  0.17550785167753047  0.5233916376345144  0.8273204308757053  1.0000
  Cd  Cd3       1.0  0.2104852038262595  0.009156501147631377  0.4865011028309892  1.0000
  Cd  Cd4       1.0  0.7637085412447012  0.8125549983436204  0.05894045291811634  1.0000
  S   S1        1.0  0.5528167147377343  0.0010714015415481803  0.3154360529884678  1.0000
  S   S2        1.0  0.05469016304152213  0.5132380136667757  0.29631089357244256  1.0000
  S   S3        1.0  0.5331101735185556  0.39350542180459613  0.8088289374528755  1.0000
  S   S4        1.0  0.9640054336093136  0.08771891497135137  0.7671831133445408  1.0000
  O   O1        1.0  0.2222299702671402  0.5920300278577644  0.29909543189204313  1.0000
  O   O2        1.0  0.5852268209401061  0.191171951424215  0.15770157094055406  1.0000
  O   O3        1.0  0.14443211284581842  0.048640184749473715  0.773567655274152  1.0000
  O   O4        1.0  0.5756501004992622  0.7075583066441182  0.8401964571583405  1.0000
  O   O5        1.0  0.6112421039372062  0.671931821946137  0.26759466429268014  1.0000
  O   O6        1.0  0.9639811178799886  0.7653837819812985  0.25382203881376597  1.0000
  O   O7        1.0  0.3849503188639157  0.41311821495539963  0.7098979827605267  1.0000
  O   O8        1.0  0.8943474362320144  0.09435726281805579  0.6047235665991764  1.0000
  O   O9        1.0  0.9405689258560699  0.7202831049481526  0.8376201104360733  1.0000
  O   O10       1.0  0.6230262460027642  0.2586522099887376  0.6631073102472702  1.0000
  O   O11       1.0  0.05595235588238213  0.40840561355505844  0.5209982734395756  1.0000
  O   O12       1.0  0.39452196218798435  0.02559216098676141  0.3398463826402331  1.0000
data_image73
_chemical_formula_structural       Cd4S4O12
_chemical_formula_sum              "Cd4 S4 O12"
_cell_length_a       9.025715
_cell_length_b       4.573479000000001
_cell_length_c       7.283293351582442
_cell_angle_alpha    88.92985652425466
_cell_angle_beta     90.0
_cell_angle_gamma    90.0

_space_group_name_H-M_alt    "P 1"
_space_group_IT_number       1

loop_
  _space_group_symop_operation_xyz
  'x, y, z'

loop_
  _atom_site_type_symbol
  _atom_site_label
  _atom_site_symmetry_multiplicity
  _atom_site_fract_x
  _atom_site_fract_y
  _atom_site_fract_z
  _atom_site_occupancy
  Cd  Cd1       1.0  0.7501855773395242  0.6229457838404906  0.525987736780208  1.0000
  Cd  Cd2       1.0  0.1969082680513846  0.500318967807563  0.9044456530202712  1.0000
  Cd  Cd3       1.0  0.2589084922114527  0.9894068473004662  0.5357888911761665  1.0000
  Cd  Cd4       1.0  0.7237589588221727  0.8135214664162578  0.022740795559456073  1.0000
  S   S1        1.0  0.5495863783425959  0.02967759698905177  0.3102274603705809  1.0000
  S   S2        1.0  0.04522070429554104  0.5075966872998352  0.2606749385964833  1.0000
  S   S3        1.0  0.5419630110977411  0.40619066178390706  0.7945664098203463  1.0000
  S   S4        1.0  0.9475964459885595  0.00710276925121807  0.7673435875735891  1.0000
  O   O1        1.0  0.14247456820292204  0.7389054017161395  0.12886519183426065  1.0000
  O   O2        1.0  0.6683514549867965  0.22707167108762313  0.22866967259132343  1.0000
  O   O3        1.0  0.12685734389976028  0.00042308730213654365  0.80207036871922  1.0000
  O   O4        1.0  0.571612361657466  0.7175348851476635  0.7921906811498037  1.0000
  O   O5        1.0  0.5007017003681359  0.9000072762104144  0.1266511699936411  1.0000
  O   O6        1.0  0.9008863381262195  0.7291511762800975  0.28014574566261186  1.0000
  O   O7        1.0  0.38601376368104096  0.44891492801752436  0.6974560278384686  1.0000
  O   O8        1.0  0.9177559888423441  0.08496212173143847  0.5779932900887329  1.0000
  O   O9        1.0  0.9224468487235201  0.6507424844655383  0.7664169780084221  1.0000
  O   O10       1.0  0.6561286975317069  0.253190182533378  0.659758903284417  1.0000
  O   O11       1.0  0.14178186753683572  0.5633507515722808  0.4447605364259279  1.0000
  O   O12       1.0  0.3844639002846244  0.18816509301798906  0.3232847749584249  1.0000
data_image74
_chemical_formula_structural       Cd4S4O12
_chemical_formula_sum              "Cd4 S4 O12"
_cell_length_a       9.025715
_cell_length_b       4.573479000000001
_cell_length_c       7.283293351582442
_cell_angle_alpha    88.92985652425466
_cell_angle_beta     90.0
_cell_angle_gamma    90.0

_space_group_name_H-M_alt    "P 1"
_space_group_IT_number       1

loop_
  _space_group_symop_operation_xyz
  'x, y, z'

loop_
  _atom_site_type_symbol
  _atom_site_label
  _atom_site_symmetry_multiplicity
  _atom_site_fract_x
  _atom_site_fract_y
  _atom_site_fract_z
  _atom_site_occupancy
  Cd  Cd1       1.0  0.7108629782519015  0.6929418624868768  0.48533583242495026  1.0000
  Cd  Cd2       1.0  0.17746474047871452  0.49454465163035316  0.9186786495090709  1.0000
  Cd  Cd3       1.0  0.2865744935763549  0.9750315132724537  0.5369135114217881  1.0000
  Cd  Cd4       1.0  0.7866468913674316  0.9029019816253093  0.059042212693319884  1.0000
  S   S1        1.0  0.5441430573900191  0.07130684951919364  0.29333465177581997  1.0000
  S   S2        1.0  0.039638533966825346  0.5161600327027612  0.23439384381291134  1.0000
  S   S3        1.0  0.5030785586371891  0.281543520720676  0.7986214863565902  1.0000
  S   S4        1.0  0.9461113924927386  0.9651327778399855  0.7594767115583507  1.0000
  O   O1        1.0  0.11676225850797395  0.8109743334077649  0.15470539594791677  1.0000
  O   O2        1.0  0.6938253145300805  0.2519442729584621  0.23653523051097214  1.0000
  O   O3        1.0  0.13329742914130507  0.9451065439575479  0.7780918783681999  1.0000
  O   O4        1.0  0.6523834629218477  0.43842751560097915  0.7540294130075116  1.0000
  O   O5        1.0  0.5267082789888854  0.864407805204237  0.14052183976877602  1.0000
  O   O6        1.0  0.867424076353484  0.5483755853982779  0.25618682805416204  1.0000
  O   O7        1.0  0.3525026141021689  0.484817525009257  0.6973804347047583  1.0000
  O   O8        1.0  0.9000996911958883  0.9205920047308397  0.5702091715662059  1.0000
  O   O9        1.0  0.9089823035230317  0.6688955108058829  0.8565785755272868  1.0000
  O   O10       1.0  0.504713580628072  0.9719476630007116  0.6703188091631302  1.0000
  O   O11       1.0  0.11402970494095836  0.5108726490022515  0.4233169230691152  1.0000
  O   O12       1.0  0.43659146916982483  0.33129572900009047  0.31355788347830343  1.0000
data_image75
_chemical_formula_structural       Cd4S4O12
_chemical_formula_sum              "Cd4 S4 O12"
_cell_length_a       9.025715
_cell_length_b       4.573479000000001
_cell_length_c       7.283293351582442
_cell_angle_alpha    88.92985652425466
_cell_angle_beta     90.0
_cell_angle_gamma    90.0

_space_group_name_H-M_alt    "P 1"
_space_group_IT_number       1

loop_
  _space_group_symop_operation_xyz
  'x, y, z'

loop_
  _atom_site_type_symbol
  _atom_site_label
  _atom_site_symmetry_multiplicity
  _atom_site_fract_x
  _atom_site_fract_y
  _atom_site_fract_z
  _atom_site_occupancy
  Cd  Cd1       1.0  0.6770448766195891  0.6770581612906393  0.46326989471618035  1.0000
  Cd  Cd2       1.0  0.18784524838276592  0.4153158207106514  0.9338812503284926  1.0000
  Cd  Cd3       1.0  0.26320669668252766  0.9710240581830957  0.49961099893418526  1.0000
  Cd  Cd4       1.0  0.8047573362889197  0.9940652172837398  0.03188093231015565  1.0000
  S   S1        1.0  0.5515482265312764  0.08076788233571792  0.2664441027307349  1.0000
  S   S2        1.0  0.07514232421054981  0.47766768108998525  0.3164901163121845  1.0000
  S   S3        1.0  0.48480477630897195  0.3627998055692958  0.8238129972121174  1.0000
  S   S4        1.0  0.9766422002573355  0.9684403142242576  0.7899763264334609  1.0000
  O   O1        1.0  0.1220583716745085  0.802127884136482  0.2655098309444146  1.0000
  O   O2        1.0  0.6579953832013204  0.2543906201108498  0.1588689972881999  1.0000
  O   O3        1.0  0.14921448726047343  0.054173877662077624  0.78710273466798  1.0000
  O   O4        1.0  0.6263456716875051  0.4574553373637815  0.6900180398222886  1.0000
  O   O5        1.0  0.5505469146020453  0.8127585085679417  0.14899861076823395  1.0000
  O   O6        1.0  0.905391513710991  0.4733473141184724  0.3508835322936885  1.0000
  O   O7        1.0  0.35860585359652425  0.5423353579006772  0.7016874066098502  1.0000
  O   O8        1.0  0.923894709892571  0.8974223365145111  0.6041928696786274  1.0000
  O   O9        1.0  0.9563123162343133  0.6708636422239673  0.906944400511833  1.0000
  O   O10       1.0  0.4719377444855935  0.06435676469379747  0.7788326937819743  1.0000
  O   O11       1.0  0.17991578833294036  0.459609182728107  0.48710916880322874  1.0000
  O   O12       1.0  0.4033349629337925  0.20773098927753264  0.26322179649810373  1.0000
data_image76
_chemical_formula_structural       Cd4S4O12
_chemical_formula_sum              "Cd4 S4 O12"
_cell_length_a       9.025715
_cell_length_b       4.573479000000001
_cell_length_c       7.283293351582442
_cell_angle_alpha    88.92985652425466
_cell_angle_beta     90.0
_cell_angle_gamma    90.0

_space_group_name_H-M_alt    "P 1"
_space_group_IT_number       1

loop_
  _space_group_symop_operation_xyz
  'x, y, z'

loop_
  _atom_site_type_symbol
  _atom_site_label
  _atom_site_symmetry_multiplicity
  _atom_site_fract_x
  _atom_site_fract_y
  _atom_site_fract_z
  _atom_site_occupancy
  Cd  Cd1       1.0  0.7376706262273615  0.5357778411873719  0.4168259556315888  1.0000
  Cd  Cd2       1.0  0.19213010501371647  0.39887393455343806  0.9518469867906906  1.0000
  Cd  Cd3       1.0  0.2576086501094742  0.8845854142024454  0.507562502781268  1.0000
  Cd  Cd4       1.0  0.8092308559485645  0.06713070487837358  0.06015960172396628  1.0000
  S   S1        1.0  0.49993476774167855  0.02204969164594424  0.32578763579395076  1.0000
  S   S2        1.0  0.06234841329381028  0.6181741332479024  0.2438733926105477  1.0000
  S   S3        1.0  0.523861330942247  0.5034939768757942  0.7950462123903163  1.0000
  S   S4        1.0  0.9464719895958976  0.98733969733424  0.7853659325421675  1.0000
  O   O1        1.0  0.9908372754919249  0.8948444090884153  0.24954246066273744  1.0000
  O   O2        1.0  0.6326013714708034  0.2206440751096335  0.27934650261647476  1.0000
  O   O3        1.0  0.11424517978152936  0.061552774487828484  0.7563978431058894  1.0000
  O   O4        1.0  0.6522460354807832  0.6893784428279248  0.7349142905321546  1.0000
  O   O5        1.0  0.49458178951707954  0.7869243656487616  0.18071078486845824  1.0000
  O   O6        1.0  0.9159907120930312  0.4563147940304324  0.19525917385616867  1.0000
  O   O7        1.0  0.3662596218349413  0.7009660153507646  0.7533914876929018  1.0000
  O   O8        1.0  0.8805479449854561  0.9823325770106276  0.5872150123179973  1.0000
  O   O9        1.0  0.9653096101091982  0.683269546674043  0.8757114278885927  1.0000
  O   O10       1.0  0.5055407853880552  0.1690822823653264  0.8137017942201423  1.0000
  O   O11       1.0  0.08658107070079683  0.5418412708251655  0.4405538720334229  1.0000
  O   O12       1.0  0.3643646919532819  0.2036583660650567  0.30849624292851435  1.0000
data_image77
_chemical_formula_structural       Cd4S4O12
_chemical_formula_sum              "Cd4 S4 O12"
_cell_length_a       9.025715
_cell_length_b       4.573479000000001
_cell_length_c       7.283293351582442
_cell_angle_alpha    88.92985652425466
_cell_angle_beta     90.0
_cell_angle_gamma    90.0

_space_group_name_H-M_alt    "P 1"
_space_group_IT_number       1

loop_
  _space_group_symop_operation_xyz
  'x, y, z'

loop_
  _atom_site_type_symbol
  _atom_site_label
  _atom_site_symmetry_multiplicity
  _atom_site_fract_x
  _atom_site_fract_y
  _atom_site_fract_z
  _atom_site_occupancy
  Cd  Cd1       1.0  0.7396668332143819  0.5096768063565448  0.49291207854937863  1.0000
  Cd  Cd2       1.0  0.1995064520477059  0.4196632446535582  0.9646233697366922  1.0000
  Cd  Cd3       1.0  0.2448050114958293  0.8558681127649501  0.550193769264358  1.0000
  Cd  Cd4       1.0  0.8386139765008561  0.10509370059768264  0.04383240954127121  1.0000
  S   S1        1.0  0.4682583113084217  0.9115874919168822  0.30021834556693616  1.0000
  S   S2        1.0  0.05481711937479298  0.6430389126448788  0.18740737202582924  1.0000
  S   S3        1.0  0.5190399705801907  0.46913456231787953  0.817910793054389  1.0000
  S   S4        1.0  0.9325008123676278  0.01730586091986015  0.7107349237943584  1.0000
  O   O1        1.0  0.10998786497161661  0.9650492971293514  0.13903950451712158  1.0000
  O   O2        1.0  0.6100032428863481  0.07245069312462604  0.2157291610740145  1.0000
  O   O3        1.0  0.08361205018495646  0.13940559562321064  0.6785683230708869  1.0000
  O   O4        1.0  0.591636143176874  0.61438691275821  0.671247643661703  1.0000
  O   O5        1.0  0.39484975982950715  0.8474181822102202  0.09993403201210466  1.0000
  O   O6        1.0  0.9056133624433453  0.7349369112282158  0.25310035837258893  1.0000
  O   O7        1.0  0.3427653809760353  0.5104472641529332  0.7530344726652983  1.0000
  O   O8        1.0  0.8626576522480404  0.08155964219376277  0.5029007577668216  1.0000
  O   O9        1.0  0.9329911004076308  0.6974212418600994  0.7064643125293204  1.0000
  O   O10       1.0  0.5621670565148279  0.1673909503599531  0.8813417311235101  1.0000
  O   O11       1.0  0.12823793724029198  0.5280319206599068  0.3614983947121407  1.0000
  O   O12       1.0  0.39131993888586075  0.1850016047976093  0.38371883352332237  1.0000
data_image78
_chemical_formula_structural       Cd4S4O12
_chemical_formula_sum              "Cd4 S4 O12"
_cell_length_a       9.025715
_cell_length_b       4.573479000000001
_cell_length_c       7.283293351582442
_cell_angle_alpha    88.92985652425466
_cell_angle_beta     90.0
_cell_angle_gamma    90.0

_space_group_name_H-M_alt    "P 1"
_space_group_IT_number       1

loop_
  _space_group_symop_operation_xyz
  'x, y, z'

loop_
  _atom_site_type_symbol
  _atom_site_label
  _atom_site_symmetry_multiplicity
  _atom_site_fract_x
  _atom_site_fract_y
  _atom_site_fract_z
  _atom_site_occupancy
  Cd  Cd1       1.0  0.7513410841589131  0.43824890178267834  0.4470987352304432  1.0000
  Cd  Cd2       1.0  0.18862280333199527  0.33820415261622794  0.9884597397330545  1.0000
  Cd  Cd3       1.0  0.30315810576198593  0.8626848121309575  0.5903944890027176  1.0000
  Cd  Cd4       1.0  0.8006625577095263  0.22201839994800254  0.9756088938682811  1.0000
  S   S1        1.0  0.5093751125100417  0.8827609635809042  0.25970890864397156  1.0000
  S   S2        1.0  0.04227949153288073  0.6952164187550088  0.20205685084738392  1.0000
  S   S3        1.0  0.5151725670691567  0.5997008137465625  0.8937521584543743  1.0000
  S   S4        1.0  0.915905651403506  0.9446165921423959  0.7091664835681077  1.0000
  O   O1        1.0  0.005783854934138022  0.9927694682596842  0.09987509645013651  1.0000
  O   O2        1.0  0.6309740641824401  0.13784622969774252  0.20227756082839557  1.0000
  O   O3        1.0  0.08157008087445722  0.01421373614601798  0.7148806384126669  1.0000
  O   O4        1.0  0.49577369606335964  0.9254248555244917  0.8521263792137349  1.0000
  O   O5        1.0  0.35305900186440514  0.9195746538768734  0.21750986928160748  1.0000
  O   O6        1.0  0.877516428589951  0.5592054420030589  0.18118615997809942  1.0000
  O   O7        1.0  0.3378449931965123  0.4404284682020839  0.7390588785253063  1.0000
  O   O8        1.0  0.8455143531404048  0.02386735710015353  0.5272501024190818  1.0000
  O   O9        1.0  0.9057049968469048  0.5974194221253933  0.7268622161176206  1.0000
  O   O10       1.0  0.6236207960728605  0.4298367162955068  0.7710601272203326  1.0000
  O   O11       1.0  0.06536708342829213  0.6929405736851885  0.3943748639559646  1.0000
  O   O12       1.0  0.5268700900770751  0.8642559795402065  0.4722289951836135  1.0000
data_image79
_chemical_formula_structural       Cd4S4O12
_chemical_formula_sum              "Cd4 S4 O12"
_cell_length_a       9.025715
_cell_length_b       4.573479000000001
_cell_length_c       7.283293351582442
_cell_angle_alpha    88.92985652425466
_cell_angle_beta     90.0
_cell_angle_gamma    90.0

_space_group_name_H-M_alt    "P 1"
_space_group_IT_number       1

loop_
  _space_group_symop_operation_xyz
  'x, y, z'

loop_
  _atom_site_type_symbol
  _atom_site_label
  _atom_site_symmetry_multiplicity
  _atom_site_fract_x
  _atom_site_fract_y
  _atom_site_fract_z
  _atom_site_occupancy
  Cd  Cd1       1.0  0.7407838981595222  0.39450053697973536  0.465270113184279  1.0000
  Cd  Cd2       1.0  0.15750026365935973  0.2924200923473626  0.9951430288640027  1.0000
  Cd  Cd3       1.0  0.3284479576548509  0.9634199926432562  0.5982534564696281  1.0000
  Cd  Cd4       1.0  0.7773340637122823  0.25045059618934773  0.9112538564855589  1.0000
  S   S1        1.0  0.5620528566950004  0.9729346588026989  0.23368076028980828  1.0000
  S   S2        1.0  0.0564906126511087  0.6401943281316024  0.2063707477301287  1.0000
  S   S3        1.0  0.4545884556063416  0.5217525927503581  0.8735077392412998  1.0000
  S   S4        1.0  0.9338177826788238  0.8629062730277913  0.7571689411177344  1.0000
  O   O1        1.0  0.03205542963739583  0.940628943023957  0.14533270783994187  1.0000
  O   O2        1.0  0.6189346455794971  0.27038770110170746  0.1620446215545212  1.0000
  O   O3        1.0  0.08748783335754008  0.9944157976398278  0.7379747845294953  1.0000
  O   O4        1.0  0.4148977183747259  0.8289701477448825  0.8856076009885063  1.0000
  O   O5        1.0  0.39520567121504924  0.048227987107901216  0.31996375292192014  1.0000
  O   O6        1.0  0.9209266630622327  0.45960193083020895  0.23756511107035821  1.0000
  O   O7        1.0  0.3083717721487906  0.4142199771881471  0.7699698003697442  1.0000
  O   O8        1.0  0.8604110463741725  0.9942730168361439  0.5908553139834379  1.0000
  O   O9        1.0  0.9465059297736226  0.5453532923622353  0.776936707630146  1.0000
  O   O10       1.0  0.5800705361244913  0.5203878682853518  0.7399095824384867  1.0000
  O   O11       1.0  0.13489728811751742  0.6455445252926492  0.37050381770694657  1.0000
  O   O12       1.0  0.6786617563075392  0.9034045420226434  0.3870824873354293  1.0000
data_image80
_chemical_formula_structural       Cd4S4O12
_chemical_formula_sum              "Cd4 S4 O12"
_cell_length_a       9.025715
_cell_length_b       4.573479000000001
_cell_length_c       7.283293351582442
_cell_angle_alpha    88.92985652425466
_cell_angle_beta     90.0
_cell_angle_gamma    90.0

_space_group_name_H-M_alt    "P 1"
_space_group_IT_number       1

loop_
  _space_group_symop_operation_xyz
  'x, y, z'

loop_
  _atom_site_type_symbol
  _atom_site_label
  _atom_site_symmetry_multiplicity
  _atom_site_fract_x
  _atom_site_fract_y
  _atom_site_fract_z
  _atom_site_occupancy
  Cd  Cd1       1.0  0.7306967279660351  0.3635777398238119  0.44854114051798283  1.0000
  Cd  Cd2       1.0  0.20771613810134393  0.2988734168914665  0.023469316245703687  1.0000
  Cd  Cd3       1.0  0.310276562792797  0.10544879370818296  0.567160470563185  1.0000
  Cd  Cd4       1.0  0.7477878347136664  0.2408572624178793  0.8796004855148576  1.0000
  S   S1        1.0  0.5276883124351791  0.9988697751904319  0.23025671542688922  1.0000
  S   S2        1.0  0.06600738383531667  0.49532316104528656  0.2978821659277776  1.0000
  S   S3        1.0  0.3930134946617948  0.5436488971757756  0.7792243777838791  1.0000
  S   S4        1.0  0.9783034911186824  0.9084071615853466  0.8439753937326689  1.0000
  O   O1        1.0  0.21154106424232455  0.6679426907153906  0.2927797523604852  1.0000
  O   O2        1.0  0.7077442695742802  0.14836482925533861  0.19613548511332582  1.0000
  O   O3        1.0  0.1502747970448276  0.9812426394656667  0.8301991044506255  1.0000
  O   O4        1.0  0.43287961467866964  0.8623426295551622  0.8315361811652227  1.0000
  O   O5        1.0  0.4246592064303128  0.21004598808643093  0.2963454129000012  1.0000
  O   O6        1.0  0.9252824284767692  0.6604945905699213  0.23799274144275134  1.0000
  O   O7        1.0  0.27715449145239596  0.6194465047816762  0.607736884649897  1.0000
  O   O8        1.0  0.8911742092229384  0.8354568301971541  0.6694689580102988  1.0000
  O   O9        1.0  0.009128865959438182  0.5634101181774406  0.8921775041839612  1.0000
  O   O10       1.0  0.5131995094039512  0.34303820429130427  0.675186195172012  1.0000
  O   O11       1.0  0.04343846918113631  0.24575608198252208  0.40912297067409764  1.0000
  O   O12       1.0  0.5346105588274028  0.7837473643996395  0.38538761098341423  1.0000
data_image81
_chemical_formula_structural       Cd4S4O12
_chemical_formula_sum              "Cd4 S4 O12"
_cell_length_a       9.025715
_cell_length_b       4.573479000000001
_cell_length_c       7.283293351582442
_cell_angle_alpha    88.92985652425466
_cell_angle_beta     90.0
_cell_angle_gamma    90.0

_space_group_name_H-M_alt    "P 1"
_space_group_IT_number       1

loop_
  _space_group_symop_operation_xyz
  'x, y, z'

loop_
  _atom_site_type_symbol
  _atom_site_label
  _atom_site_symmetry_multiplicity
  _atom_site_fract_x
  _atom_site_fract_y
  _atom_site_fract_z
  _atom_site_occupancy
  Cd  Cd1       1.0  0.6844276093967572  0.3708438046178941  0.4698642141588571  1.0000
  Cd  Cd2       1.0  0.26475305733800175  0.3235058074755261  0.04692457753738517  1.0000
  Cd  Cd3       1.0  0.2993372741003184  0.10614315341146242  0.5053015031066879  1.0000
  Cd  Cd4       1.0  0.728193436482817  0.1258734347594237  0.8427270814566035  1.0000
  S   S1        1.0  0.5946654041543523  0.9951232352946472  0.2012963857211821  1.0000
  S   S2        1.0  0.9920517644748081  0.43135928465280415  0.3271336375754822  1.0000
  S   S3        1.0  0.43097059868294757  0.679146892925359  0.8154327019524563  1.0000
  S   S4        1.0  0.9771687971815843  0.8992283348462443  0.848271158343275  1.0000
  O   O1        1.0  0.14991098034833383  0.5424975763754191  0.30884585184911983  1.0000
  O   O2        1.0  0.6786791027055454  0.32248263621505496  0.1573801154347265  1.0000
  O   O3        1.0  0.14048211445935266  0.03374470342379573  0.7831662763454609  1.0000
  O   O4        1.0  0.46352918215645367  0.9807713245725029  0.7680760089345676  1.0000
  O   O5        1.0  0.4249313419456521  0.06482165253933747  0.2386051918162757  1.0000
  O   O6        1.0  0.8780238899938657  0.7285349324445702  0.2982354438469766  1.0000
  O   O7        1.0  0.33948728168135334  0.5561221595887399  0.6584499933034174  1.0000
  O   O8        1.0  0.8750976447075322  0.6976020182459697  0.7377787867309211  1.0000
  O   O9        1.0  0.06093490375309796  0.6994944329971671  0.9840768604801848  1.0000
  O   O10       1.0  0.5932166928919472  0.551149849847596  0.7666681494788086  1.0000
  O   O11       1.0  0.9535646882252854  0.29800001310263796  0.4951645523782175  1.0000
  O   O12       1.0  0.6359430080367274  0.9042462950488943  0.4260555060866169  1.0000
data_image82
_chemical_formula_structural       Cd4S4O12
_chemical_formula_sum              "Cd4 S4 O12"
_cell_length_a       9.025715
_cell_length_b       4.573479000000001
_cell_length_c       7.283293351582442
_cell_angle_alpha    88.92985652425466
_cell_angle_beta     90.0
_cell_angle_gamma    90.0

_space_group_name_H-M_alt    "P 1"
_space_group_IT_number       1

loop_
  _space_group_symop_operation_xyz
  'x, y, z'

loop_
  _atom_site_type_symbol
  _atom_site_label
  _atom_site_symmetry_multiplicity
  _atom_site_fract_x
  _atom_site_fract_y
  _atom_site_fract_z
  _atom_site_occupancy
  Cd  Cd1       1.0  0.68937443183063  0.4555228999625224  0.4491870835277203  1.0000
  Cd  Cd2       1.0  0.30144519169737866  0.3431487778772793  0.005821748192156402  1.0000
  Cd  Cd3       1.0  0.24536324372146798  0.07994718842259554  0.5001928135756043  1.0000
  Cd  Cd4       1.0  0.68854088235529  0.11614867687415997  0.8502166401096576  1.0000
  S   S1        1.0  0.5295190351683063  0.9006192429907138  0.25500409046606287  1.0000
  S   S2        1.0  0.9993566937716156  0.3319950673373539  0.3349473566660914  1.0000
  S   S3        1.0  0.47347788606921803  0.5551024851747239  0.7807227032306586  1.0000
  S   S4        1.0  0.06763913411230349  0.02935182237318254  0.9259212296516859  1.0000
  O   O1        1.0  0.12133032000143928  0.48280201241987647  0.4091593978244486  1.0000
  O   O2        1.0  0.6042220888555551  0.16295236531877638  0.15780726734703787  1.0000
  O   O3        1.0  0.16707217948902878  0.21781890148010394  0.7619173706840979  1.0000
  O   O4        1.0  0.4557398804539688  0.8924746692391377  0.8239352843990161  1.0000
  O   O5        1.0  0.3894892357382075  0.040118894705281294  0.28148447504085666  1.0000
  O   O6        1.0  0.9097798008274898  0.6243920394952475  0.25074695423558085  1.0000
  O   O7        1.0  0.4374111624939514  0.489316686592887  0.5898930999115303  1.0000
  O   O8        1.0  0.9475607753705234  0.8838347590889569  0.8091615567752402  1.0000
  O   O9        1.0  0.19206963690688195  0.8317774435433646  0.013698646134279846  1.0000
  O   O10       1.0  0.6604861387884489  0.5353950852376701  0.8127805736874667  1.0000
  O   O11       1.0  0.9083450557404744  0.1664205758793153  0.4768542426551214  1.0000
  O   O12       1.0  0.6242737463000438  0.9395072760764118  0.4413611947194129  1.0000
data_image83
_chemical_formula_structural       Cd4S4O12
_chemical_formula_sum              "Cd4 S4 O12"
_cell_length_a       9.025715
_cell_length_b       4.573479000000001
_cell_length_c       7.283293351582442
_cell_angle_alpha    88.92985652425466
_cell_angle_beta     90.0
_cell_angle_gamma    90.0

_space_group_name_H-M_alt    "P 1"
_space_group_IT_number       1

loop_
  _space_group_symop_operation_xyz
  'x, y, z'

loop_
  _atom_site_type_symbol
  _atom_site_label
  _atom_site_symmetry_multiplicity
  _atom_site_fract_x
  _atom_site_fract_y
  _atom_site_fract_z
  _atom_site_occupancy
  Cd  Cd1       1.0  0.6978196425732777  0.47087209302151317  0.4160349122299744  1.0000
  Cd  Cd2       1.0  0.3403581798128394  0.3532142857801493  0.006002166877230902  1.0000
  Cd  Cd3       1.0  0.23260925955764167  0.026658623071166433  0.5350961748524617  1.0000
  Cd  Cd4       1.0  0.6724573213764727  0.10062340628124344  0.8210962571263836  1.0000
  S   S1        1.0  0.5623977611975575  0.9352245941413212  0.30426887461034635  1.0000
  S   S2        1.0  0.029822195772430442  0.44003360236887296  0.3605556693067501  1.0000
  S   S3        1.0  0.47801404664258806  0.5731757342869461  0.72423841448701  1.0000
  S   S4        1.0  0.03518978331001299  0.9236755363554862  0.9681682665772929  1.0000
  O   O1        1.0  0.1522354183707857  0.6030719175704505  0.48415289461562677  1.0000
  O   O2        1.0  0.5915779368633738  0.179582878930425  0.12737036765534762  1.0000
  O   O3        1.0  0.11923355031006252  0.183343965634924  0.8210215236045828  1.0000
  O   O4        1.0  0.45480985076101405  0.9158357348519468  0.7499555632312419  1.0000
  O   O5        1.0  0.3764285811033067  0.011357850293177707  0.2906422273503934  1.0000
  O   O6        1.0  0.9046844291124767  0.6057021942770897  0.2652389062704055  1.0000
  O   O7        1.0  0.41367834042969304  0.4691297033791821  0.5598743963591039  1.0000
  O   O8        1.0  0.8631937482694485  0.9171083026800879  0.9201651423861644  1.0000
  O   O9        1.0  0.13957903888641643  0.6772067791047188  0.9448134846423512  1.0000
  O   O10       1.0  0.6562759104349759  0.6094121937224539  0.7388496163975984  1.0000
  O   O11       1.0  0.9309038563090596  0.2633132420236962  0.5160185710431301  1.0000
  O   O12       1.0  0.625892566699103  0.02164409145698058  0.47791385233142614  1.0000
data_image84
_chemical_formula_structural       Cd4S4O12
_chemical_formula_sum              "Cd4 S4 O12"
_cell_length_a       9.025715
_cell_length_b       4.573479000000001
_cell_length_c       7.283293351582442
_cell_angle_alpha    88.92985652425466
_cell_angle_beta     90.0
_cell_angle_gamma    90.0

_space_group_name_H-M_alt    "P 1"
_space_group_IT_number       1

loop_
  _space_group_symop_operation_xyz
  'x, y, z'

loop_
  _atom_site_type_symbol
  _atom_site_label
  _atom_site_symmetry_multiplicity
  _atom_site_fract_x
  _atom_site_fract_y
  _atom_site_fract_z
  _atom_site_occupancy
  Cd  Cd1       1.0  0.6605920241881647  0.4856637488139954  0.39310023696397056  1.0000
  Cd  Cd2       1.0  0.33796451949236755  0.314452148536173  0.004716452411838096  1.0000
  Cd  Cd3       1.0  0.23339869321251155  0.049734005195363716  0.544761003904127  1.0000
  Cd  Cd4       1.0  0.7301631288868621  0.1406003505837763  0.8645396544761813  1.0000
  S   S1        1.0  0.5049063894358325  0.9442513123893652  0.2047296080319046  1.0000
  S   S2        1.0  0.012519240638742707  0.44712040811454595  0.3379696730729962  1.0000
  S   S3        1.0  0.4756296125761935  0.6314544809960778  0.7606742921137191  1.0000
  S   S4        1.0  0.06317986530676922  0.9300958598361739  0.9846736095846522  1.0000
  O   O1        1.0  0.07584810619739857  0.5915262189890188  0.5000162384533329  1.0000
  O   O2        1.0  0.5662985098108198  0.220608053429187  0.12782689070511388  1.0000
  O   O3        1.0  0.15015076050271753  0.06897624294154188  0.8247499091004648  1.0000
  O   O4        1.0  0.4775201263185294  0.966342386076545  0.7567019427144894  1.0000
  O   O5        1.0  0.3415223719237756  0.035870949165730526  0.2722619930622778  1.0000
  O   O6        1.0  0.8763369389307529  0.5848356151394571  0.26821942356407674  1.0000
  O   O7        1.0  0.4066263354120742  0.47833450591387916  0.5692522579208074  1.0000
  O   O8        1.0  0.9129326967365345  0.8171412772545932  0.8892230835565472  1.0000
  O   O9        1.0  0.1527862025252016  0.6133953183013541  0.9889872905763788  1.0000
  O   O10       1.0  0.6320044686147418  0.5584195125202422  0.7956304086917717  1.0000
  O   O11       1.0  0.9890457351292571  0.15172722468120803  0.43424320137516054  1.0000
  O   O12       1.0  0.6170343179414407  0.9408322694767342  0.4050913373972445  1.0000
data_image85
_chemical_formula_structural       Cd4S4O12
_chemical_formula_sum              "Cd4 S4 O12"
_cell_length_a       9.025715
_cell_length_b       4.573479000000001
_cell_length_c       7.283293351582442
_cell_angle_alpha    88.92985652425466
_cell_angle_beta     90.0
_cell_angle_gamma    90.0

_space_group_name_H-M_alt    "P 1"
_space_group_IT_number       1

loop_
  _space_group_symop_operation_xyz
  'x, y, z'

loop_
  _atom_site_type_symbol
  _atom_site_label
  _atom_site_symmetry_multiplicity
  _atom_site_fract_x
  _atom_site_fract_y
  _atom_site_fract_z
  _atom_site_occupancy
  Cd  Cd1       1.0  0.6434442074410501  0.4346312823135704  0.38846215223959746  1.0000
  Cd  Cd2       1.0  0.32648641467135653  0.3629181262746202  0.012059792861697725  1.0000
  Cd  Cd3       1.0  0.21251784683667824  0.07024309424290776  0.48496387648434847  1.0000
  Cd  Cd4       1.0  0.7625714255358127  0.036293960770361844  0.8818115985256313  1.0000
  S   S1        1.0  0.5224865242311659  0.9204172795443084  0.2410048049558047  1.0000
  S   S2        1.0  0.037279100516557105  0.5123728324809154  0.32778040484481097  1.0000
  S   S3        1.0  0.4703648918959369  0.6147728574715865  0.762199353479607  1.0000
  S   S4        1.0  0.05811597262907209  0.9730832228956248  0.9959999317791411  1.0000
  O   O1        1.0  0.11665145526272136  0.5944640465447699  0.5108939238883279  1.0000
  O   O2        1.0  0.6005060626238051  0.1676207417606317  0.10953519816669308  1.0000
  O   O3        1.0  0.057980504407893964  0.3127596138397042  0.9117701536118658  1.0000
  O   O4        1.0  0.4393642602984633  0.9092986542845709  0.7392340814269751  1.0000
  O   O5        1.0  0.3712591448420695  0.10242551268398792  0.30917351918700653  1.0000
  O   O6        1.0  0.8818202050542487  0.6718905593616535  0.3622435332200673  1.0000
  O   O7        1.0  0.4507453416480034  0.45732359305288883  0.585625910715664  1.0000
  O   O8        1.0  0.9027237793200552  0.7369621962591558  0.9329245923673499  1.0000
  O   O9        1.0  0.204123434786728  0.8424131821647081  0.9617213650807998  1.0000
  O   O10       1.0  0.6391843706200464  0.5775772160539872  0.7969971036141904  1.0000
  O   O11       1.0  0.9911511481993354  0.18205477271201426  0.37589421401982287  1.0000
  O   O12       1.0  0.6012947219729806  0.9400191093220447  0.4243310421004704  1.0000
data_image86
_chemical_formula_structural       Cd4S4O12
_chemical_formula_sum              "Cd4 S4 O12"
_cell_length_a       9.025715
_cell_length_b       4.573479000000001
_cell_length_c       7.283293351582442
_cell_angle_alpha    88.92985652425466
_cell_angle_beta     90.0
_cell_angle_gamma    90.0

_space_group_name_H-M_alt    "P 1"
_space_group_IT_number       1

loop_
  _space_group_symop_operation_xyz
  'x, y, z'

loop_
  _atom_site_type_symbol
  _atom_site_label
  _atom_site_symmetry_multiplicity
  _atom_site_fract_x
  _atom_site_fract_y
  _atom_site_fract_z
  _atom_site_occupancy
  Cd  Cd1       1.0  0.6322653148875881  0.46166533948854654  0.37931820319804277  1.0000
  Cd  Cd2       1.0  0.304190155868894  0.4363052812416541  0.05357206375463053  1.0000
  Cd  Cd3       1.0  0.21976524568818842  0.037262072461543304  0.5416200358002627  1.0000
  Cd  Cd4       1.0  0.7222080316300626  0.9481027599045816  0.8139839125742678  1.0000
  S   S1        1.0  0.5766817292995318  0.9534714682160824  0.23787509820298297  1.0000
  S   S2        1.0  0.9966517958785538  0.5047421177132113  0.3538505420137077  1.0000
  S   S3        1.0  0.49197449587887293  0.5272380639627912  0.7573301531461958  1.0000
  S   S4        1.0  0.053352063577676745  0.9739643828527474  0.9924974485870506  1.0000
  O   O1        1.0  0.1462938141590746  0.6698747597064303  0.3423412979085599  1.0000
  O   O2        1.0  0.6625151982790803  0.20926780725048877  0.11292974230800823  1.0000
  O   O3        1.0  0.06806548919521442  0.25828119902455215  0.09556928036700851  1.0000
  O   O4        1.0  0.4520034376984346  0.8459624938331198  0.6876791282038592  1.0000
  O   O5        1.0  0.4169675281587775  0.9626523965046718  0.2704510733486276  1.0000
  O   O6        1.0  0.8979969268223327  0.7811891897692462  0.3680443376777141  1.0000
  O   O7        1.0  0.4357416837963324  0.3527472728554374  0.590837119259601  1.0000
  O   O8        1.0  0.012753330756041015  0.03517328489022753  0.7636556450626368  1.0000
  O   O9        1.0  0.24029878959344453  0.9236814727482288  0.9711801618090945  1.0000
  O   O10       1.0  0.664824363546428  0.4624992350714716  0.7146333306708531  1.0000
  O   O11       1.0  0.01325321158559156  0.28630303158939185  0.49250417064253005  1.0000
  O   O12       1.0  0.6530697648693583  0.984606621848388  0.42021002679160374  1.0000
data_image87
_chemical_formula_structural       Cd4S4O12
_chemical_formula_sum              "Cd4 S4 O12"
_cell_length_a       9.025715
_cell_length_b       4.573479000000001
_cell_length_c       7.283293351582442
_cell_angle_alpha    88.92985652425466
_cell_angle_beta     90.0
_cell_angle_gamma    90.0

_space_group_name_H-M_alt    "P 1"
_space_group_IT_number       1

loop_
  _space_group_symop_operation_xyz
  'x, y, z'

loop_
  _atom_site_type_symbol
  _atom_site_label
  _atom_site_symmetry_multiplicity
  _atom_site_fract_x
  _atom_site_fract_y
  _atom_site_fract_z
  _atom_site_occupancy
  Cd  Cd1       1.0  0.6404957176576654  0.5431222822449739  0.42594158623411077  1.0000
  Cd  Cd2       1.0  0.32148469017733566  0.4746353976387199  0.07056994176858646  1.0000
  Cd  Cd3       1.0  0.2489527466018114  0.9353373727159595  0.607279401500128  1.0000
  Cd  Cd4       1.0  0.744970474375857  0.9293464433803491  0.8021319159300401  1.0000
  S   S1        1.0  0.5220244011301786  0.9604451405126243  0.1574397521129852  1.0000
  S   S2        1.0  0.05342501214166115  0.5462769648727911  0.35337357381389106  1.0000
  S   S3        1.0  0.4493837805283484  0.4866672141656665  0.7336391049383177  1.0000
  S   S4        1.0  0.009094175835504315  0.886302021266346  0.9174534071047229  1.0000
  O   O1        1.0  0.14513694895410256  0.7247327055442926  0.21140021456523345  1.0000
  O   O2        1.0  0.5941703137986856  0.1488732949409704  0.013392906913246624  1.0000
  O   O3        1.0  0.9748190347897034  0.1401315606156562  0.05935648249240755  1.0000
  O   O4        1.0  0.4715791612230509  0.8050276113955803  0.7506763814393647  1.0000
  O   O5        1.0  0.41474600004676543  0.17139561529211522  0.23435973019591025  1.0000
  O   O6        1.0  0.8938893735787963  0.49993795933115637  0.2897077511375911  1.0000
  O   O7        1.0  0.3649800412779899  0.45992905188940547  0.5394962918639324  1.0000
  O   O8        1.0  0.9655027791700179  0.02990881448898386  0.7401933078266864  1.0000
  O   O9        1.0  0.18881197171764597  0.8491308747925227  0.9186770869352034  1.0000
  O   O10       1.0  0.6198726194543372  0.445338090164902  0.6956212474740688  1.0000
  O   O11       1.0  0.02796988589972694  0.6800420893663883  0.5600679389944959  1.0000
  O   O12       1.0  0.630203635783797  0.9885993238894933  0.36075143095956563  1.0000
data_image88
_chemical_formula_structural       Cd4S4O12
_chemical_formula_sum              "Cd4 S4 O12"
_cell_length_a       9.025715
_cell_length_b       4.573479000000001
_cell_length_c       7.283293351582442
_cell_angle_alpha    88.92985652425466
_cell_angle_beta     90.0
_cell_angle_gamma    90.0

_space_group_name_H-M_alt    "P 1"
_space_group_IT_number       1

loop_
  _space_group_symop_operation_xyz
  'x, y, z'

loop_
  _atom_site_type_symbol
  _atom_site_label
  _atom_site_symmetry_multiplicity
  _atom_site_fract_x
  _atom_site_fract_y
  _atom_site_fract_z
  _atom_site_occupancy
  Cd  Cd1       1.0  0.6852739638992011  0.4093106744255163  0.3879296633483807  1.0000
  Cd  Cd2       1.0  0.30118973906688395  0.5105753788825943  0.07852729532236177  1.0000
  Cd  Cd3       1.0  0.2542080134689484  0.9467495775391548  0.5702552337601642  1.0000
  Cd  Cd4       1.0  0.6770250466750294  0.982450379857069  0.7823597638723286  1.0000
  S   S1        1.0  0.5288901144304321  0.9002623176416501  0.2090589015832529  1.0000
  S   S2        1.0  0.0014446443452525918  0.583105947482276  0.41666879750956265  1.0000
  S   S3        1.0  0.4757095198360327  0.5062257609291261  0.7379595648633958  1.0000
  S   S4        1.0  0.07576523016613823  0.9635454465399305  0.0010295557674928624  1.0000
  O   O1        1.0  0.18916231908376946  0.5802712639627687  0.36355304119768245  1.0000
  O   O2        1.0  0.5754408543588758  0.05785387186939288  0.04008310382981649  1.0000
  O   O3        1.0  0.12249756087752654  0.2777547200171862  0.018762643020215464  1.0000
  O   O4        1.0  0.486522891321611  0.8162152961129912  0.6368798495083758  1.0000
  O   O5        1.0  0.38476693739484114  0.058264948509875625  0.29321341297985637  1.0000
  O   O6        1.0  0.8859982532901519  0.6499952915718259  0.2725272621367741  1.0000
  O   O7        1.0  0.360470775571097  0.39674426079858666  0.595177346506647  1.0000
  O   O8        1.0  0.9319633190937965  0.0816663754338891  0.8631425110054922  1.0000
  O   O9        1.0  0.18322579062534694  0.8227222357953716  0.8667569994352592  1.0000
  O   O10       1.0  0.6631867381610521  0.43618721803274285  0.727356738569163  1.0000
  O   O11       1.0  0.021476241958455614  0.8369648067575604  0.5265406974265366  1.0000
  O   O12       1.0  0.6614983837472419  0.0009870385222609437  0.3727530739198657  1.0000
data_image89
_chemical_formula_structural       Cd4S4O12
_chemical_formula_sum              "Cd4 S4 O12"
_cell_length_a       9.025715
_cell_length_b       4.573479000000001
_cell_length_c       7.283293351582442
_cell_angle_alpha    88.92985652425466
_cell_angle_beta     90.0
_cell_angle_gamma    90.0

_space_group_name_H-M_alt    "P 1"
_space_group_IT_number       1

loop_
  _space_group_symop_operation_xyz
  'x, y, z'

loop_
  _atom_site_type_symbol
  _atom_site_label
  _atom_site_symmetry_multiplicity
  _atom_site_fract_x
  _atom_site_fract_y
  _atom_site_fract_z
  _atom_site_occupancy
  Cd  Cd1       1.0  0.6969888194772736  0.3297187500406184  0.412176403026361  1.0000
  Cd  Cd2       1.0  0.3162237608739368  0.5975562230153184  0.0452733227843547  1.0000
  Cd  Cd3       1.0  0.2759874247516929  0.9509556184132277  0.4916004606311793  1.0000
  Cd  Cd4       1.0  0.7039920840360648  1.4134485027961219e-05  0.7867110661206138  1.0000
  S   S1        1.0  0.5020574645839402  0.013185481174234648  0.23311672275633116  1.0000
  S   S2        1.0  0.008918643628571263  0.5961695462907675  0.45144623882796253  1.0000
  S   S3        1.0  0.4638776319009539  0.44358725822748735  0.7992958908967939  1.0000
  S   S4        1.0  0.015599187481199595  0.9329405298203629  0.9955144972483966  1.0000
  O   O1        1.0  0.15200361063752488  0.5918432632123448  0.29915117197213476  1.0000
  O   O2        1.0  0.6417435885946768  0.9388760837115705  0.13895599966057637  1.0000
  O   O3        1.0  0.9736486078584048  0.24839433796854815  0.9781090962706205  1.0000
  O   O4        1.0  0.4585882221712992  0.7797620434365711  0.8538300454508335  1.0000
  O   O5        1.0  0.4699121781939554  0.35899530840245353  0.2856149043335192  1.0000
  O   O6        1.0  0.8727252271627838  0.5442275915196411  0.2966449357513123  1.0000
  O   O7        1.0  0.33435681819595336  0.36950791069663896  0.6901915033217266  1.0000
  O   O8        1.0  0.9004650558732038  0.7516881375722706  0.8700230282807911  1.0000
  O   O9        1.0  0.14996171087335286  0.8330002814678058  0.8936996478108867  1.0000
  O   O10       1.0  0.6600433277518577  0.5158892275977536  0.7436708823197219  1.0000
  O   O11       1.0  0.9821222159666383  0.949349824711181  0.4649828736166923  1.0000
  O   O12       1.0  0.5211097554726518  0.868073817812304  0.41328540962086113  1.0000
data_image90
_chemical_formula_structural       Cd4S4O12
_chemical_formula_sum              "Cd4 S4 O12"
_cell_length_a       9.025715
_cell_length_b       4.573479000000001
_cell_length_c       7.283293351582442
_cell_angle_alpha    88.92985652425466
_cell_angle_beta     90.0
_cell_angle_gamma    90.0

_space_group_name_H-M_alt    "P 1"
_space_group_IT_number       1

loop_
  _space_group_symop_operation_xyz
  'x, y, z'

loop_
  _atom_site_type_symbol
  _atom_site_label
  _atom_site_symmetry_multiplicity
  _atom_site_fract_x
  _atom_site_fract_y
  _atom_site_fract_z
  _atom_site_occupancy
  Cd  Cd1       1.0  0.7122905465203608  0.3189732860260099  0.3930495299118934  1.0000
  Cd  Cd2       1.0  0.27345693769763785  0.6949958405113628  0.06917379409800534  1.0000
  Cd  Cd3       1.0  0.25715884675658823  0.03558510317137312  0.5306312732176989  1.0000
  Cd  Cd4       1.0  0.7551204224082024  0.9801676558159066  0.8065592887136067  1.0000
  S   S1        1.0  0.4772599401622821  0.030546561666457202  0.20947094863723076  1.0000
  S   S2        1.0  0.025261629581025572  0.5536058092294628  0.46224962198653824  1.0000
  S   S3        1.0  0.4661981406262491  0.4208959954042151  0.7509557975294009  1.0000
  S   S4        1.0  0.002721005542824395  0.7297265296738258  0.9692517906506201  1.0000
  O   O1        1.0  0.14683708022067954  0.44173137055522294  0.3391735722987465  1.0000
  O   O2        1.0  0.6201687366825139  0.9309883901722256  0.13686765218635832  1.0000
  O   O3        1.0  0.9579964305628629  0.05635065367919719  0.99915439707016  1.0000
  O   O4        1.0  0.4416411578378292  0.7512619373380554  0.8320179640489488  1.0000
  O   O5        1.0  0.4875211335960045  0.3758648695209723  0.22004803142853868  1.0000
  O   O6        1.0  0.8938794992956224  0.5764611353230219  0.31636607905801656  1.0000
  O   O7        1.0  0.36863963568939406  0.461981441258249  0.5593074276835192  1.0000
  O   O8        1.0  0.8694520433971559  0.5950525495229108  0.8689771282925706  1.0000
  O   O9        1.0  0.15504927934512636  0.7914508188059147  0.8078406523037286  1.0000
  O   O10       1.0  0.6698293000525553  0.3721276225726309  0.6672070540331859  1.0000
  O   O11       1.0  0.01079990210559361  0.8941165080612058  0.5036988092346054  1.0000
  O   O12       1.0  0.49317188288487623  0.9481720706463066  0.4145352586335464  1.0000
data_image91
_chemical_formula_structural       Cd4S4O12
_chemical_formula_sum              "Cd4 S4 O12"
_cell_length_a       9.025715
_cell_length_b       4.573479000000001
_cell_length_c       7.283293351582442
_cell_angle_alpha    88.92985652425466
_cell_angle_beta     90.0
_cell_angle_gamma    90.0

_space_group_name_H-M_alt    "P 1"
_space_group_IT_number       1

loop_
  _space_group_symop_operation_xyz
  'x, y, z'

loop_
  _atom_site_type_symbol
  _atom_site_label
  _atom_site_symmetry_multiplicity
  _atom_site_fract_x
  _atom_site_fract_y
  _atom_site_fract_z
  _atom_site_occupancy
  Cd  Cd1       1.0  0.6682019239039113  0.3791537217891087  0.328533809097454  1.0000
  Cd  Cd2       1.0  0.30135770417681074  0.7342273741500808  0.03378844451199031  1.0000
  Cd  Cd3       1.0  0.27350824106087007  0.9506393262760267  0.5919539965284921  1.0000
  Cd  Cd4       1.0  0.7460835969160087  0.056717082503071836  0.8250012512282151  1.0000
  S   S1        1.0  0.5310553493217848  0.9323192478739305  0.18592897496640737  1.0000
  S   S2        1.0  0.015374287532335221  0.49514123484808387  0.4677198644945315  1.0000
  S   S3        1.0  0.4531377984473766  0.5026982084651841  0.7759387885042769  1.0000
  S   S4        1.0  0.9825267457419676  0.7017825406347334  0.007018406521985376  1.0000
  O   O1        1.0  0.14506814303647242  0.378498699756231  0.34956496456781894  1.0000
  O   O2        1.0  0.6772385202190828  0.9639639815807239  0.09391514265139582  1.0000
  O   O3        1.0  0.9815352496649817  0.04768079297528597  0.9949594105231406  1.0000
  O   O4        1.0  0.4663855375152905  0.8528093251706184  0.7931183539091886  1.0000
  O   O5        1.0  0.4897758099740847  0.2616733667943709  0.20013766888265563  1.0000
  O   O6        1.0  0.8983354035702941  0.4995731385613865  0.3169666551135912  1.0000
  O   O7        1.0  0.3099388576656839  0.39833996571921804  0.6721295242818643  1.0000
  O   O8        1.0  0.838862098456317  0.5875957308532681  0.8998771041720313  1.0000
  O   O9        1.0  0.11248022304933114  0.738618974595691  0.8364120815784291  1.0000
  O   O10       1.0  0.5972952522492071  0.3648553899356719  0.6794992908567351  1.0000
  O   O11       1.0  0.04273621631841882  0.8155576569712489  0.5158053913436526  1.0000
  O   O12       1.0  0.5935529320157413  0.856797966990914  0.3669447831455132  1.0000
data_image92
_chemical_formula_structural       Cd4S4O12
_chemical_formula_sum              "Cd4 S4 O12"
_cell_length_a       9.025715
_cell_length_b       4.573479000000001
_cell_length_c       7.283293351582442
_cell_angle_alpha    88.92985652425466
_cell_angle_beta     90.0
_cell_angle_gamma    90.0

_space_group_name_H-M_alt    "P 1"
_space_group_IT_number       1

loop_
  _space_group_symop_operation_xyz
  'x, y, z'

loop_
  _atom_site_type_symbol
  _atom_site_label
  _atom_site_symmetry_multiplicity
  _atom_site_fract_x
  _atom_site_fract_y
  _atom_site_fract_z
  _atom_site_occupancy
  Cd  Cd1       1.0  0.6676122880922899  0.402275456064792  0.35514329417606205  1.0000
  Cd  Cd2       1.0  0.3053580293845693  0.6011393035007502  0.11271226656394695  1.0000
  Cd  Cd3       1.0  0.2514996056004488  0.8683937223873887  0.5875431648155974  1.0000
  Cd  Cd4       1.0  0.7573151428209416  0.14625081512534877  0.7736101617980241  1.0000
  S   S1        1.0  0.4882094728960861  0.02255419156639354  0.16926544359173173  1.0000
  S   S2        1.0  0.02608015924991029  0.46632876662457445  0.45705808038899054  1.0000
  S   S3        1.0  0.5357828475525129  0.58753540962536  0.7868737007553477  1.0000
  S   S4        1.0  0.9453374146717887  0.7639860680133643  0.9411175994371397  1.0000
  O   O1        1.0  0.16014300362266942  0.5605794979000867  0.33464249164282867  1.0000
  O   O2        1.0  0.6166533635186219  0.02015147223365903  0.027824715343418696  1.0000
  O   O3        1.0  0.008572877363408468  0.05546024365387311  0.8833996317830015  1.0000
  O   O4        1.0  0.489014186735025  0.9118685215823488  0.7642539034125225  1.0000
  O   O5        1.0  0.44555506130371375  0.3152037437438058  0.260616133235584  1.0000
  O   O6        1.0  0.9027570272117523  0.40268379817895505  0.3032559716615626  1.0000
  O   O7        1.0  0.38612059589125675  0.4534330375134436  0.7319199506146856  1.0000
  O   O8        1.0  0.8525834878724032  0.6301403549211023  0.7992143237696451  1.0000
  O   O9        1.0  0.10261185159822217  0.5771750735179699  0.9264970065705592  1.0000
  O   O10       1.0  0.6466994423302519  0.5190080129212391  0.6247735901995816  1.0000
  O   O11       1.0  0.008773999368542978  0.7789898937150871  0.524433217370358  1.0000
  O   O12       1.0  0.5529131426156806  0.853514061972841  0.34750712862322103  1.0000
data_image93
_chemical_formula_structural       Cd4S4O12
_chemical_formula_sum              "Cd4 S4 O12"
_cell_length_a       9.025715
_cell_length_b       4.573479000000001
_cell_length_c       7.283293351582442
_cell_angle_alpha    88.92985652425466
_cell_angle_beta     90.0
_cell_angle_gamma    90.0

_space_group_name_H-M_alt    "P 1"
_space_group_IT_number       1

loop_
  _space_group_symop_operation_xyz
  'x, y, z'

loop_
  _atom_site_type_symbol
  _atom_site_label
  _atom_site_symmetry_multiplicity
  _atom_site_fract_x
  _atom_site_fract_y
  _atom_site_fract_z
  _atom_site_occupancy
  Cd  Cd1       1.0  0.7017994329977774  0.43712578260080065  0.32776127214205764  1.0000
  Cd  Cd2       1.0  0.2707599592833355  0.4999006887005928  0.10394871248594466  1.0000
  Cd  Cd3       1.0  0.2506183919891707  0.8759021053471417  0.6014982306195975  1.0000
  Cd  Cd4       1.0  0.7764146419506551  0.19325922644856552  0.7691974199354378  1.0000
  S   S1        1.0  0.5066079882943728  0.019922320721894614  0.1660239301153061  1.0000
  S   S2        1.0  0.0170907237761917  0.4416162588478852  0.40864158975795045  1.0000
  S   S3        1.0  0.49523941851398023  0.5878720162675322  0.8036840069743466  1.0000
  S   S4        1.0  0.9777576701185747  0.8673786756614508  0.9947272039992525  1.0000
  O   O1        1.0  0.17116017506529202  0.5434274344316734  0.37592732048054717  1.0000
  O   O2        1.0  0.6440813152429451  0.10092166594199972  0.07261744916100613  1.0000
  O   O3        1.0  0.992382734333632  0.12272875124078415  0.8246473160523644  1.0000
  O   O4        1.0  0.4755706762737122  0.9260998196672456  0.7605460308451045  1.0000
  O   O5        1.0  0.4192679490808403  0.18492539723827717  0.29979089589088914  1.0000
  O   O6        1.0  0.9323456068903164  0.3707693472803415  0.23445396100298382  1.0000
  O   O7        1.0  0.3340384018241186  0.41657859066013747  0.7680701325470661  1.0000
  O   O8        1.0  0.844275002334693  0.6706087111134973  0.9278992569110982  1.0000
  O   O9        1.0  0.12137750260310476  0.7079420878067514  0.9390471268346502  1.0000
  O   O10       1.0  0.6035135300643999  0.48330326363712994  0.6691484306776799  1.0000
  O   O11       1.0  0.9285733955601856  0.679923515125538  0.4882408290229182  1.0000
  O   O12       1.0  0.571954294361783  0.8155135414430191  0.3223824050352041  1.0000
data_image94
_chemical_formula_structural       Cd4S4O12
_chemical_formula_sum              "Cd4 S4 O12"
_cell_length_a       9.025715
_cell_length_b       4.573479000000001
_cell_length_c       7.283293351582442
_cell_angle_alpha    88.92985652425466
_cell_angle_beta     90.0
_cell_angle_gamma    90.0

_space_group_name_H-M_alt    "P 1"
_space_group_IT_number       1

loop_
  _space_group_symop_operation_xyz
  'x, y, z'

loop_
  _atom_site_type_symbol
  _atom_site_label
  _atom_site_symmetry_multiplicity
  _atom_site_fract_x
  _atom_site_fract_y
  _atom_site_fract_z
  _atom_site_occupancy
  Cd  Cd1       1.0  0.6935821534149024  0.44931185193925915  0.3732561419539424  1.0000
  Cd  Cd2       1.0  0.2451965192581143  0.4161959164733912  0.10806781060330373  1.0000
  Cd  Cd3       1.0  0.26974079552214464  0.8887195309635919  0.6194028928990534  1.0000
  Cd  Cd4       1.0  0.7829551463053585  0.31989633617350943  0.7624246589124694  1.0000
  S   S1        1.0  0.5745331046386627  0.05539416405439695  0.16785548057509198  1.0000
  S   S2        1.0  0.05483023534630661  0.4195820804774916  0.4204762462331674  1.0000
  S   S3        1.0  0.44491988877175265  0.43966637757447957  0.7884266300415436  1.0000
  S   S4        1.0  0.9696575142827273  0.8304617197500316  0.9203254552937279  1.0000
  O   O1        1.0  0.09520814500491892  0.7346309555012054  0.3735754492329007  1.0000
  O   O2        1.0  0.7090238396483548  0.2524083805232878  0.0906256551546735  1.0000
  O   O3        1.0  0.9832766172686592  0.14023370211764824  0.8605677733043338  1.0000
  O   O4        1.0  0.4324940004966908  0.7826610284811517  0.7966298106734895  1.0000
  O   O5        1.0  0.4346457688103261  0.14517558733796143  0.2604387418344531  1.0000
  O   O6        1.0  0.05986721188479349  0.2783659782208837  0.21810272228075392  1.0000
  O   O7        1.0  0.2850522300638561  0.30457854673199447  0.7518660495517614  1.0000
  O   O8        1.0  0.8417698341318898  0.7506733222573948  0.7985147764222397  1.0000
  O   O9        1.0  0.1016256107856306  0.7102917263059434  0.8390328023040335  1.0000
  O   O10       1.0  0.510732573285687  0.4121261963982339  0.57972001423193  1.0000
  O   O11       1.0  0.8998203816337532  0.5029481970459372  0.5010549709740106  1.0000
  O   O12       1.0  0.6381815061254341  0.8936277602960198  0.32487351990992663  1.0000
data_image95
_chemical_formula_structural       Cd4S4O12
_chemical_formula_sum              "Cd4 S4 O12"
_cell_length_a       9.025715
_cell_length_b       4.573479000000001
_cell_length_c       7.283293351582442
_cell_angle_alpha    88.92985652425466
_cell_angle_beta     90.0
_cell_angle_gamma    90.0

_space_group_name_H-M_alt    "P 1"
_space_group_IT_number       1

loop_
  _space_group_symop_operation_xyz
  'x, y, z'

loop_
  _atom_site_type_symbol
  _atom_site_label
  _atom_site_symmetry_multiplicity
  _atom_site_fract_x
  _atom_site_fract_y
  _atom_site_fract_z
  _atom_site_occupancy
  Cd  Cd1       1.0  0.6628331657150806  0.4018645054499408  0.3736185499981891  1.0000
  Cd  Cd2       1.0  0.2509973022235513  0.47331708834309943  0.03659359607560248  1.0000
  Cd  Cd3       1.0  0.2375559325403864  0.8397468191360005  0.6543284099101278  1.0000
  Cd  Cd4       1.0  0.7867224252270957  0.3732178193865878  0.7603745081250167  1.0000
  S   S1        1.0  0.5789911563601196  0.9732585145197078  0.1467651872654289  1.0000
  S   S2        1.0  0.08578812475372659  0.3641853027984269  0.4464667350186997  1.0000
  S   S3        1.0  0.49459163550064955  0.40010625195769944  0.7363850445697679  1.0000
  S   S4        1.0  0.9639732529763149  0.9486729084405335  0.9450868963975313  1.0000
  O   O1        1.0  0.1863621806093796  0.6581898718985316  0.38764767463661665  1.0000
  O   O2        1.0  0.7048258598357757  0.23337505088043975  0.09515431703253334  1.0000
  O   O3        1.0  0.05904199959477587  0.18387501975641876  0.8598612401132169  1.0000
  O   O4        1.0  0.47934410129622684  0.5947553616950862  0.8994339904089895  1.0000
  O   O5        1.0  0.4522109868399925  0.1481764809172348  0.26340373096035785  1.0000
  O   O6        1.0  0.03985378642695229  0.32693797690498405  0.25321374347840486  1.0000
  O   O7        1.0  0.35059230804371466  0.20068678647395985  0.7817741790031103  1.0000
  O   O8        1.0  0.8229353766672846  0.8955281647104363  0.8084232276866263  1.0000
  O   O9        1.0  0.05295752104155449  0.6920468317554997  0.9226665313219651  1.0000
  O   O10       1.0  0.44526668717613477  0.6129593589715043  0.6034475958008961  1.0000
  O   O11       1.0  0.9342210953720533  0.501969233504792  0.5080450233783774  1.0000
  O   O12       1.0  0.6797311739068173  0.8772120326505874  0.3247752735318176  1.0000
data_image96
_chemical_formula_structural       Cd4S4O12
_chemical_formula_sum              "Cd4 S4 O12"
_cell_length_a       9.025715
_cell_length_b       4.573479000000001
_cell_length_c       7.283293351582442
_cell_angle_alpha    88.92985652425466
_cell_angle_beta     90.0
_cell_angle_gamma    90.0

_space_group_name_H-M_alt    "P 1"
_space_group_IT_number       1

loop_
  _space_group_symop_operation_xyz
  'x, y, z'

loop_
  _atom_site_type_symbol
  _atom_site_label
  _atom_site_symmetry_multiplicity
  _atom_site_fract_x
  _atom_site_fract_y
  _atom_site_fract_z
  _atom_site_occupancy
  Cd  Cd1       1.0  0.6593974391613677  0.38020464629300954  0.39947524774606985  1.0000
  Cd  Cd2       1.0  0.28964368796755957  0.4381563609239033  0.05700016696237809  1.0000
  Cd  Cd3       1.0  0.18873717906207566  0.7218987879836545  0.6868743063393488  1.0000
  Cd  Cd4       1.0  0.8254315053620913  0.44568730117467936  0.7721056671972842  1.0000
  S   S1        1.0  0.6100530924530078  0.06876778282730754  0.11430019629989245  1.0000
  S   S2        1.0  0.042760707511099956  0.28212546663736127  0.3914622748882372  1.0000
  S   S3        1.0  0.4753628300734547  0.6027757559634779  0.6995887216267308  1.0000
  S   S4        1.0  0.9587483308465152  0.9955601818265317  0.933904480348775  1.0000
  O   O1        1.0  0.134318060706619  0.46180289955758885  0.47707248029134636  1.0000
  O   O2        1.0  0.7018634992171245  0.34614603480947453  0.11440521474403229  1.0000
  O   O3        1.0  0.09226762486480404  0.10371833697865146  0.8234488892478493  1.0000
  O   O4        1.0  0.46754022204794127  0.8385770171937619  0.8269502197232653  1.0000
  O   O5        1.0  0.4539383582612471  0.16224287830970363  0.18298959281695376  1.0000
  O   O6        1.0  0.10007751341640932  0.33678395126452243  0.16479730891951824  1.0000
  O   O7        1.0  0.3894203438868942  0.33549169599097733  0.8039767780991471  1.0000
  O   O8        1.0  0.8185902509670916  0.9807095023050812  0.7760204063681413  1.0000
  O   O9        1.0  0.999445647803631  0.6429571059322643  0.9085931106035054  1.0000
  O   O10       1.0  0.40927207695999024  0.5691805667689467  0.5257658549323568  1.0000
  O   O11       1.0  0.8882445882153622  0.4934179856051557  0.4576210147651804  1.0000
  O   O12       1.0  0.6532591193321186  0.8625226669151758  0.27465183218201217  1.0000
data_image97
_chemical_formula_structural       Cd4S4O12
_chemical_formula_sum              "Cd4 S4 O12"
_cell_length_a       9.025715
_cell_length_b       4.573479000000001
_cell_length_c       7.283293351582442
_cell_angle_alpha    88.92985652425466
_cell_angle_beta     90.0
_cell_angle_gamma    90.0

_space_group_name_H-M_alt    "P 1"
_space_group_IT_number       1

loop_
  _space_group_symop_operation_xyz
  'x, y, z'

loop_
  _atom_site_type_symbol
  _atom_site_label
  _atom_site_symmetry_multiplicity
  _atom_site_fract_x
  _atom_site_fract_y
  _atom_site_fract_z
  _atom_site_occupancy
  Cd  Cd1       1.0  0.6855387151448732  0.43993229032500425  0.37049253919717784  1.0000
  Cd  Cd2       1.0  0.2740532764816054  0.4295921586790458  0.060963920524499574  1.0000
  Cd  Cd3       1.0  0.17850711639106223  0.7834600810312811  0.6492511441864702  1.0000
  Cd  Cd4       1.0  0.7727947681832846  0.4791787347476504  0.7601577955547726  1.0000
  S   S1        1.0  0.6157261106037352  0.0175649181829474  0.11514014805773923  1.0000
  S   S2        1.0  0.045367995473203394  0.2438174149360583  0.47044262442938967  1.0000
  S   S3        1.0  0.5017170761027892  0.45715388768076726  0.7502938639965794  1.0000
  S   S4        1.0  0.9862505753268322  0.9379055220106626  0.9393669626880592  1.0000
  O   O1        1.0  0.19885981304812272  0.40241976313329364  0.47672599913304986  1.0000
  O   O2        1.0  0.6852636987635913  0.32248179192652254  0.095373514625975  1.0000
  O   O3        1.0  0.12090698504486505  0.12359887524900855  0.8615035829223533  1.0000
  O   O4        1.0  0.40538952955279584  0.6822093222254781  0.898424170855788  1.0000
  O   O5        1.0  0.46009295140574447  0.0613003548088078  0.18125621580701123  1.0000
  O   O6        1.0  0.037330880258214544  0.24705158390818127  0.2542212776286569  1.0000
  O   O7        1.0  0.3893564306117638  0.25333421815989204  0.7447564117301712  1.0000
  O   O8        1.0  0.8482104082551766  0.9433322542052062  0.743742205388141  1.0000
  O   O9        1.0  0.05451766577269557  0.626727903601588  0.9988855703794159  1.0000
  O   O10       1.0  0.5194473827014083  0.6429222430360981  0.5535861437616139  1.0000
  O   O11       1.0  0.9083472303240889  0.4683063617941957  0.522954171805486  1.0000
  O   O12       1.0  0.7209424607881739  0.9212268194558101  0.26122269453701036  1.0000
data_image98
_chemical_formula_structural       Cd4S4O12
_chemical_formula_sum              "Cd4 S4 O12"
_cell_length_a       9.025715
_cell_length_b       4.573479000000001
_cell_length_c       7.283293351582442
_cell_angle_alpha    88.92985652425466
_cell_angle_beta     90.0
_cell_angle_gamma    90.0

_space_group_name_H-M_alt    "P 1"
_space_group_IT_number       1

loop_
  _space_group_symop_operation_xyz
  'x, y, z'

loop_
  _atom_site_type_symbol
  _atom_site_label
  _atom_site_symmetry_multiplicity
  _atom_site_fract_x
  _atom_site_fract_y
  _atom_site_fract_z
  _atom_site_occupancy
  Cd  Cd1       1.0  0.6989659667544046  0.46069415011460646  0.3516973651521022  1.0000
  Cd  Cd2       1.0  0.26132034571919144  0.3399371769640891  0.06635440039625255  1.0000
  Cd  Cd3       1.0  0.16057370775307364  0.9250645047727977  0.6081082966497864  1.0000
  Cd  Cd4       1.0  0.7836273496331865  0.4257148106611126  0.8155592052265023  1.0000
  S   S1        1.0  0.6023417749445983  0.04860966614448138  0.10785222579934829  1.0000
  S   S2        1.0  0.05997880099804857  0.3393449393321612  0.46292541338430526  1.0000
  S   S3        1.0  0.5049245912640146  0.3955365134832789  0.7303960222511727  1.0000
  S   S4        1.0  0.9723160579628763  0.9227738280675658  0.994743575157295  1.0000
  O   O1        1.0  0.2216145365903135  0.5102093019921857  0.4939548116421194  1.0000
  O   O2        1.0  0.6879517528900903  0.33102233047604335  0.08199126521090411  1.0000
  O   O3        1.0  0.11590175982051838  0.05695109678507752  0.9186671401030009  1.0000
  O   O4        1.0  0.3598443481336762  0.6014421507329213  0.8276900819532038  1.0000
  O   O5        1.0  0.45911845754464725  0.14339129833748254  0.19624814390024523  1.0000
  O   O6        1.0  0.1196367331055779  0.11419868008831535  0.3062559469333603  1.0000
  O   O7        1.0  0.44870627962105414  0.09628605660396627  0.6994124889675742  1.0000
  O   O8        1.0  0.8578856123692781  0.9564906755924105  0.7988540590798903  1.0000
  O   O9        1.0  0.9911897763202758  0.5616691562244768  0.004523944274908098  1.0000
  O   O10       1.0  0.5210221240270902  0.5926516297769102  0.530867920757599  1.0000
  O   O11       1.0  0.9542180880236084  0.5632192282142942  0.40770060123255575  1.0000
  O   O12       1.0  0.6785810069864427  0.9378996119369629  0.27449154530641473  1.0000
data_image99
_chemical_formula_structural       Cd4S4O12
_chemical_formula_sum              "Cd4 S4 O12"
_cell_length_a       9.025715
_cell_length_b       4.573479000000001
_cell_length_c       7.283293351582442
_cell_angle_alpha    88.92985652425466
_cell_angle_beta     90.0
_cell_angle_gamma    90.0

_space_group_name_H-M_alt    "P 1"
_space_group_IT_number       1

loop_
  _space_group_symop_operation_xyz
  'x, y, z'

loop_
  _atom_site_type_symbol
  _atom_site_label
  _atom_site_symmetry_multiplicity
  _atom_site_fract_x
  _atom_site_fract_y
  _atom_site_fract_z
  _atom_site_occupancy
  Cd  Cd1       1.0  0.7136392118136705  0.4383299850142973  0.35144830850018743  1.0000
  Cd  Cd2       1.0  0.26872533749025  0.4154435870296934  0.0885177502044098  1.0000
  Cd  Cd3       1.0  0.23095692197010154  0.9748199407309943  0.6736142616583928  1.0000
  Cd  Cd4       1.0  0.7694254698737052  0.35903116956969017  0.8110414967543156  1.0000
  S   S1        1.0  0.5035079816438002  0.0017137631763527868  0.13729026541433703  1.0000
  S   S2        1.0  0.05803358410008207  0.36418153823078947  0.41806266866155345  1.0000
  S   S3        1.0  0.4746616316569734  0.47102006426297094  0.7004706125947477  1.0000
  S   S4        1.0  0.006450152233768325  0.7578495990135421  0.9515973371686478  1.0000
  O   O1        1.0  0.20560424814439449  0.4595253065843065  0.45439619281004495  1.0000
  O   O2        1.0  0.5381546210020024  0.3168518516865819  0.08228182369923587  1.0000
  O   O3        1.0  0.103398677785903  0.9857352328638379  0.8964418246360271  1.0000
  O   O4        1.0  0.3334857368734966  0.5906444101827404  0.8171266064444181  1.0000
  O   O5        1.0  0.39257497993020474  0.11424530067561878  0.28230002971228657  1.0000
  O   O6        1.0  0.05413896309144699  0.16322905981908542  0.23511214454203463  1.0000
  O   O7        1.0  0.4712598716887256  0.17472337155404474  0.6045456817666152  1.0000
  O   O8        1.0  0.8393788710904699  0.9023613083171828  0.8287114699395468  1.0000
  O   O9        1.0  0.021664577757671832  0.5276754955977081  0.8268521123250739  1.0000
  O   O10       1.0  0.47122277973474747  0.7084887856460793  0.5478662021201557  1.0000
  O   O11       1.0  0.9257319007476383  0.566433901787573  0.36484430403896234  1.0000
  O   O12       1.0  0.7008034184776375  0.9211598020691286  0.2045360211176511  1.0000
data_image100
_chemical_formula_structural       Cd4S4O12
_chemical_formula_sum              "Cd4 S4 O12"
_cell_length_a       9.025715
_cell_length_b       4.573479000000001
_cell_length_c       7.283293351582442
_cell_angle_alpha    88.92985652425466
_cell_angle_beta     90.0
_cell_angle_gamma    90.0

_space_group_name_H-M_alt    "P 1"
_space_group_IT_number       1

loop_
  _space_group_symop_operation_xyz
  'x, y, z'

loop_
  _atom_site_type_symbol
  _atom_site_label
  _atom_site_symmetry_multiplicity
  _atom_site_fract_x
  _atom_site_fract_y
  _atom_site_fract_z
  _atom_site_occupancy
  Cd  Cd1       1.0  0.6664230318016952  0.4512755444640427  0.3506283043661423  1.0000
  Cd  Cd2       1.0  0.23829551539691557  0.39829156126052034  0.10795049834895842  1.0000
  Cd  Cd3       1.0  0.30574532996950166  0.015017990581544209  0.6494558028769103  1.0000
  Cd  Cd4       1.0  0.7586348366326234  0.3057243591667169  0.8535620436891281  1.0000
  S   S1        1.0  0.5353156570420519  0.04501745014669281  0.07864416435781718  1.0000
  S   S2        1.0  0.042856713583745126  0.24041613783132704  0.4335922714359945  1.0000
  S   S3        1.0  0.5236976315262618  0.6303477458506144  0.7245289492754311  1.0000
  S   S4        1.0  0.0021875561500122043  0.7479565694063817  0.880288698155883  1.0000
  O   O1        1.0  0.17712856007534694  0.4949283012592761  0.43645402219831925  1.0000
  O   O2        1.0  0.5278806158800078  0.3691044128413288  0.0669654818129023  1.0000
  O   O3        1.0  0.05899657306738687  0.025356581635420684  0.8020156232071978  1.0000
  O   O4        1.0  0.3900647896987394  0.6661781387905845  0.8252094952927953  1.0000
  O   O5        1.0  0.3633638074311309  0.9588194550939504  0.12581281377947492  1.0000
  O   O6        1.0  0.05618960132655954  0.17154848812326684  0.23639049805071144  1.0000
  O   O7        1.0  0.5124864951994879  0.24920020165054796  0.6664410281887391  1.0000
  O   O8        1.0  0.827570950124329  0.8601640937118329  0.8717974749315792  1.0000
  O   O9        1.0  0.05944261062935041  0.5277673474965249  0.7552359612319733  1.0000
  O   O10       1.0  0.4969337498784423  0.7344632878235109  0.5473474412557773  1.0000
  O   O11       1.0  0.8962614067050052  0.37393787955864694  0.4826194731700491  1.0000
  O   O12       1.0  0.6562674565065173  0.9715167196102675  0.245904285330305  1.0000
data_image101
_chemical_formula_structural       Cd4S4O12
_chemical_formula_sum              "Cd4 S4 O12"
_cell_length_a       9.025715
_cell_length_b       4.573479000000001
_cell_length_c       7.283293351582442
_cell_angle_alpha    88.92985652425466
_cell_angle_beta     90.0
_cell_angle_gamma    90.0

_space_group_name_H-M_alt    "P 1"
_space_group_IT_number       1

loop_
  _space_group_symop_operation_xyz
  'x, y, z'

loop_
  _atom_site_type_symbol
  _atom_site_label
  _atom_site_symmetry_multiplicity
  _atom_site_fract_x
  _atom_site_fract_y
  _atom_site_fract_z
  _atom_site_occupancy
  Cd  Cd1       1.0  0.6577753792374954  0.4738056577089978  0.37884598139850373  1.0000
  Cd  Cd2       1.0  0.26745404980703497  0.4902416750030236  0.13095424299946018  1.0000
  Cd  Cd3       1.0  0.2737232521133832  0.10434897229398557  0.6545053189086549  1.0000
  Cd  Cd4       1.0  0.7741958712251528  0.24885499796393895  0.8605618699969252  1.0000
  S   S1        1.0  0.5067970744714648  0.05220064691718697  0.06428344626923856  1.0000
  S   S2        1.0  0.01280420071376809  0.113317532022068  0.37511347723209537  1.0000
  S   S3        1.0  0.5126963489493687  0.6309404584888159  0.712220263089086  1.0000
  S   S4        1.0  0.03445792204552656  0.6657590944341456  0.8903625359286174  1.0000
  O   O1        1.0  0.18761689408622173  0.26012212036025456  0.38300912438603507  1.0000
  O   O2        1.0  0.5063589754179768  0.3434272935198433  0.13051465852721036  1.0000
  O   O3        1.0  0.12207418847933452  0.9294892660709043  0.8926808702847133  1.0000
  O   O4        1.0  0.3391482126780688  0.6062363072657064  0.7795771752755548  1.0000
  O   O5        1.0  0.37817506003678747  0.8698068911541087  0.13649770509987347  1.0000
  O   O6        1.0  0.9833814735240476  0.995173650599851  0.18980267113110622  1.0000
  O   O7        1.0  0.5374931569679778  0.3081632469642513  0.6568538182322335  1.0000
  O   O8        1.0  0.8718756719547569  0.8149351413852819  0.8099767983651308  1.0000
  O   O9        1.0  0.05951329466832611  0.48786782986825783  0.7134781598906523  1.0000
  O   O10       1.0  0.5182416848287075  0.8231920694321275  0.5149089606069379  1.0000
  O   O11       1.0  0.9341778741215021  0.41386480832885514  0.3847638935034034  1.0000
  O   O12       1.0  0.6300212666211736  0.9161893059485424  0.17581050384869618  1.0000
data_image102
_chemical_formula_structural       Cd4S4O12
_chemical_formula_sum              "Cd4 S4 O12"
_cell_length_a       9.025715
_cell_length_b       4.573479000000001
_cell_length_c       7.283293351582442
_cell_angle_alpha    88.92985652425466
_cell_angle_beta     90.0
_cell_angle_gamma    90.0

_space_group_name_H-M_alt    "P 1"
_space_group_IT_number       1

loop_
  _space_group_symop_operation_xyz
  'x, y, z'

loop_
  _atom_site_type_symbol
  _atom_site_label
  _atom_site_symmetry_multiplicity
  _atom_site_fract_x
  _atom_site_fract_y
  _atom_site_fract_z
  _atom_site_occupancy
  Cd  Cd1       1.0  0.6515295768508844  0.4785697181091545  0.35671378042988516  1.0000
  Cd  Cd2       1.0  0.28354241715424455  0.5308987389589293  0.14117614778029525  1.0000
  Cd  Cd3       1.0  0.1804792249477234  0.16827352534557694  0.6658186349035702  1.0000
  Cd  Cd4       1.0  0.8328150715097383  0.23743672659497084  0.8698334640273437  1.0000
  S   S1        1.0  0.535099322110816  0.9815386189348716  0.06547117896224346  1.0000
  S   S2        1.0  0.9880831262329925  0.09264458248783344  0.32503030561076796  1.0000
  S   S3        1.0  0.5149180617648339  0.6426514040235729  0.740956437219781  1.0000
  S   S4        1.0  0.020896565475474027  0.6302719805605173  0.9058672097064282  1.0000
  O   O1        1.0  0.11849870612204172  0.3058077813486866  0.3446468393607265  1.0000
  O   O2        1.0  0.5905075982370167  0.3149758562724841  0.05303476991072357  1.0000
  O   O3        1.0  0.1428217755890165  0.8953616771161133  0.8833092227040226  1.0000
  O   O4        1.0  0.39099904711476796  0.4292476054408738  0.7913386643501564  1.0000
  O   O5        1.0  0.39387228374674754  0.9752289642671975  0.19468126871124442  1.0000
  O   O6        1.0  0.04725168263370384  0.8281466319956674  0.23167547937796465  1.0000
  O   O7        1.0  0.642908562355628  0.367560564606283  0.6401670923865541  1.0000
  O   O8        1.0  0.8508165869035166  0.7993325198026395  0.8625620610512068  1.0000
  O   O9        1.0  0.013124998198265736  0.47055787406467353  0.7157929653153304  1.0000
  O   O10       1.0  0.4893207521917529  0.7886528782536351  0.5558536707877338  1.0000
  O   O11       1.0  0.8994421676967975  0.24249612320929326  0.1914848555337587  1.0000
  O   O12       1.0  0.6725194209216299  0.9076558422284446  0.254247177299603  1.0000
data_image103
_chemical_formula_structural       Cd4S4O12
_chemical_formula_sum              "Cd4 S4 O12"
_cell_length_a       9.025715
_cell_length_b       4.573479000000001
_cell_length_c       7.283293351582442
_cell_angle_alpha    88.92985652425466
_cell_angle_beta     90.0
_cell_angle_gamma    90.0

_space_group_name_H-M_alt    "P 1"
_space_group_IT_number       1

loop_
  _space_group_symop_operation_xyz
  'x, y, z'

loop_
  _atom_site_type_symbol
  _atom_site_label
  _atom_site_symmetry_multiplicity
  _atom_site_fract_x
  _atom_site_fract_y
  _atom_site_fract_z
  _atom_site_occupancy
  Cd  Cd1       1.0  0.64730434605078  0.4557768586737261  0.359919771307646  1.0000
  Cd  Cd2       1.0  0.29842798476286336  0.4844289884507539  0.13897900602501784  1.0000
  Cd  Cd3       1.0  0.21867243795662453  0.19018105167829497  0.6284476884447743  1.0000
  Cd  Cd4       1.0  0.839051150495034  0.2635618643536983  0.8954715105392496  1.0000
  S   S1        1.0  0.5568774655509626  0.9195965223963959  0.15157681876611726  1.0000
  S   S2        1.0  0.9908932718072413  0.2041741374083887  0.3111957237389204  1.0000
  S   S3        1.0  0.42062145173897386  0.5600405736260414  0.6965504630584449  1.0000
  S   S4        1.0  0.03947445727732024  0.6580775315061534  0.8540801327450143  1.0000
  O   O1        1.0  0.14994828496305312  0.34377197113123936  0.3103481766116069  1.0000
  O   O2        1.0  0.6364846981093287  0.19962424408972093  0.08425389706296302  1.0000
  O   O3        1.0  0.09225363648941103  0.9824899803579741  0.8511166863394775  1.0000
  O   O4        1.0  0.3651169141965241  0.30697552449748833  0.8251710117718516  1.0000
  O   O5        1.0  0.37162398130416424  0.05243315303976881  0.15733023962032824  1.0000
  O   O6        1.0  0.02923081182919359  0.9779410367456352  0.18866994582484325  1.0000
  O   O7        1.0  0.5903993767503306  0.5570260503079143  0.6812156330036169  1.0000
  O   O8        1.0  0.8850796479661809  0.7528167595672154  0.9077088368977788  1.0000
  O   O9        1.0  0.9873324588696597  0.46448699395408766  0.6755702486716763  1.0000
  O   O10       1.0  0.35876929473804436  0.4769976148758146  0.4967866493697319  1.0000
  O   O11       1.0  0.8750364958640072  0.41704571364018794  0.2815595629639447  1.0000
  O   O12       1.0  0.6216410920025943  0.9426654579348805  0.3903831200930773  1.0000
data_image104
_chemical_formula_structural       Cd4S4O12
_chemical_formula_sum              "Cd4 S4 O12"
_cell_length_a       9.025715
_cell_length_b       4.573479000000001
_cell_length_c       7.283293351582442
_cell_angle_alpha    88.92985652425466
_cell_angle_beta     90.0
_cell_angle_gamma    90.0

_space_group_name_H-M_alt    "P 1"
_space_group_IT_number       1

loop_
  _space_group_symop_operation_xyz
  'x, y, z'

loop_
  _atom_site_type_symbol
  _atom_site_label
  _atom_site_symmetry_multiplicity
  _atom_site_fract_x
  _atom_site_fract_y
  _atom_site_fract_z
  _atom_site_occupancy
  Cd  Cd1       1.0  0.6779539620217124  0.4734702552378515  0.41332329591214917  1.0000
  Cd  Cd2       1.0  0.3004764779501478  0.5294997201269478  0.09892365993631412  1.0000
  Cd  Cd3       1.0  0.251925193345717  0.12153509775340234  0.5770351186017527  1.0000
  Cd  Cd4       1.0  0.7940074875413363  0.24604770477074855  0.9210907925370322  1.0000
  S   S1        1.0  0.5422281610943209  0.9016440674263498  0.21011549923085976  1.0000
  S   S2        1.0  0.948924898423982  0.15225199506295725  0.32210186220284887  1.0000
  S   S3        1.0  0.46676255417371953  0.6176923543786605  0.6937366383429657  1.0000
  S   S4        1.0  0.020532358277979057  0.6990096188251953  0.8299248982705152  1.0000
  O   O1        1.0  0.1508312645683585  0.320811607296039  0.29020317182588473  1.0000
  O   O2        1.0  0.562425019804003  0.21749211735495297  0.12723137674089607  1.0000
  O   O3        1.0  0.09687897635156587  0.9907236856327478  0.7714443913567747  1.0000
  O   O4        1.0  0.3611885648747266  0.5337764960106075  0.8307206716146462  1.0000
  O   O5        1.0  0.3773364628263595  0.9490536316861777  0.26098914946915275  1.0000
  O   O6        1.0  0.9305259030549937  0.9955855404596177  0.15312623799827477  1.0000
  O   O7        1.0  0.589212728855808  0.3526432174354049  0.7196122263503383  1.0000
  O   O8        1.0  0.8466548653441439  0.7980770865294083  0.8657301732989305  1.0000
  O   O9        1.0  0.0016641314059167023  0.5205412611709679  0.6599769630647453  1.0000
  O   O10       1.0  0.426225584035862  0.5152617076516339  0.505808450382406  1.0000
  O   O11       1.0  0.8851113768056101  0.46194951536879997  0.3001895407072038  1.0000
  O   O12       1.0  0.6452531421287272  0.9267889483447356  0.3795732068862892  1.0000
data_image105
_chemical_formula_structural       Cd4S4O12
_chemical_formula_sum              "Cd4 S4 O12"
_cell_length_a       9.025715
_cell_length_b       4.573479000000001
_cell_length_c       7.283293351582442
_cell_angle_alpha    88.92985652425466
_cell_angle_beta     90.0
_cell_angle_gamma    90.0

_space_group_name_H-M_alt    "P 1"
_space_group_IT_number       1

loop_
  _space_group_symop_operation_xyz
  'x, y, z'

loop_
  _atom_site_type_symbol
  _atom_site_label
  _atom_site_symmetry_multiplicity
  _atom_site_fract_x
  _atom_site_fract_y
  _atom_site_fract_z
  _atom_site_occupancy
  Cd  Cd1       1.0  0.6609065719462611  0.5057857557991845  0.4576504892455152  1.0000
  Cd  Cd2       1.0  0.2701538004672471  0.5382712101145427  0.19608911642342136  1.0000
  Cd  Cd3       1.0  0.3330783288912302  0.06215911837604191  0.541104510659813  1.0000
  Cd  Cd4       1.0  0.8017750302565577  0.279862614821639  0.8667129774615796  1.0000
  S   S1        1.0  0.5705882181780147  0.1040908350269359  0.1425728540529454  1.0000
  S   S2        1.0  0.9454632777995748  0.11587340710915844  0.28501145292308544  1.0000
  S   S3        1.0  0.42569499665952365  0.4903363742042266  0.7759317735591893  1.0000
  S   S4        1.0  0.010473233364974632  0.6804452740503052  0.7926202173405532  1.0000
  O   O1        1.0  0.10965429541120231  0.19376503279437074  0.28643126174398525  1.0000
  O   O2        1.0  0.6133255123794209  0.42222281041867765  0.13956166281134572  1.0000
  O   O3        1.0  0.10599917930804217  0.9514251741046255  0.7683573470749482  1.0000
  O   O4        1.0  0.3111546330975195  0.25226230047476883  0.8218237534223632  1.0000
  O   O5        1.0  0.38199457374263124  0.013757782299265608  0.14836639506756064  1.0000
  O   O6        1.0  0.9042400868052068  0.02702410824256518  0.10254588886469501  1.0000
  O   O7        1.0  0.5752632096878605  0.3177257255300154  0.7092691428825794  1.0000
  O   O8        1.0  0.8133873430033187  0.7828250925745514  0.7761393567492234  1.0000
  O   O9        1.0  0.005648037121621874  0.4610825919377085  0.6329395362025607  1.0000
  O   O10       1.0  0.3490537953243994  0.5636321783573022  0.5782616173020568  1.0000
  O   O11       1.0  0.8787469532950991  0.4061568713702163  0.315291038309289  1.0000
  O   O12       1.0  0.5955847160690113  0.03504034744317237  0.3405382463066208  1.0000
data_image106
_chemical_formula_structural       Cd4S4O12
_chemical_formula_sum              "Cd4 S4 O12"
_cell_length_a       9.025715
_cell_length_b       4.573479000000001
_cell_length_c       7.283293351582442
_cell_angle_alpha    88.92985652425466
_cell_angle_beta     90.0
_cell_angle_gamma    90.0

_space_group_name_H-M_alt    "P 1"
_space_group_IT_number       1

loop_
  _space_group_symop_operation_xyz
  'x, y, z'

loop_
  _atom_site_type_symbol
  _atom_site_label
  _atom_site_symmetry_multiplicity
  _atom_site_fract_x
  _atom_site_fract_y
  _atom_site_fract_z
  _atom_site_occupancy
  Cd  Cd1       1.0  0.6748691780648932  0.5884900610505076  0.47148712327759124  1.0000
  Cd  Cd2       1.0  0.23491279300621176  0.5313310348899636  0.22490984907501516  1.0000
  Cd  Cd3       1.0  0.3394385767989828  0.0882031453190327  0.4932953487694206  1.0000
  Cd  Cd4       1.0  0.8056441297766607  0.20653441932809802  0.8691718244074352  1.0000
  S   S1        1.0  0.5210188379474676  0.05105647102305362  0.13627099555286076  1.0000
  S   S2        1.0  0.958912980391577  0.10915866054002184  0.27831567505132493  1.0000
  S   S3        1.0  0.4600286678654377  0.4804403839291693  0.7717734714552389  1.0000
  S   S4        1.0  0.9812794692535012  0.7310110820169797  0.7955766423275868  1.0000
  O   O1        1.0  0.13482930820581496  0.20079719047524222  0.35482324283908856  1.0000
  O   O2        1.0  0.5728748685554997  0.3749329222129467  0.13726136642767983  1.0000
  O   O3        1.0  0.11901243934982549  0.8939377156087305  0.759839384208132  1.0000
  O   O4        1.0  0.3413873893371478  0.25069925239303803  0.8463845617672064  1.0000
  O   O5        1.0  0.3544124563805756  0.9725258641675134  0.15754086871366385  1.0000
  O   O6        1.0  0.9567680644061759  0.0022426888495873376  0.0739176350189601  1.0000
  O   O7        1.0  0.6223592414664282  0.32358229298766195  0.720298700602904  1.0000
  O   O8        1.0  0.8604919796089071  0.8876800152762564  0.680296627753083  1.0000
  O   O9        1.0  0.9718475239825288  0.4241927964812715  0.6981067092533527  1.0000
  O   O10       1.0  0.4083091232871299  0.5412898831665192  0.5720903928749739  1.0000
  O   O11       1.0  0.8729807657419631  0.4127138551417289  0.3163106365142633  1.0000
  O   O12       1.0  0.5635329087522671  0.9827759852434464  0.3496640019396091  1.0000
data_image107
_chemical_formula_structural       Cd4S4O12
_chemical_formula_sum              "Cd4 S4 O12"
_cell_length_a       9.025715
_cell_length_b       4.573479000000001
_cell_length_c       7.283293351582442
_cell_angle_alpha    88.92985652425466
_cell_angle_beta     90.0
_cell_angle_gamma    90.0

_space_group_name_H-M_alt    "P 1"
_space_group_IT_number       1

loop_
  _space_group_symop_operation_xyz
  'x, y, z'

loop_
  _atom_site_type_symbol
  _atom_site_label
  _atom_site_symmetry_multiplicity
  _atom_site_fract_x
  _atom_site_fract_y
  _atom_site_fract_z
  _atom_site_occupancy
  Cd  Cd1       1.0  0.7086926331232397  0.5458988244436576  0.4691155041267215  1.0000
  Cd  Cd2       1.0  0.252308087752748  0.5246030666308786  0.16834436353969062  1.0000
  Cd  Cd3       1.0  0.35129430245458876  0.12161974481480024  0.5316931751041547  1.0000
  Cd  Cd4       1.0  0.7689847794104459  0.15999090384729597  0.9276395346498874  1.0000
  S   S1        1.0  0.5104050229279012  0.06660933246017645  0.14916905622724125  1.0000
  S   S2        1.0  0.9292393195843917  0.1707333477663366  0.29005419498271023  1.0000
  S   S3        1.0  0.46921101069728244  0.5388805393600051  0.7909002852265131  1.0000
  S   S4        1.0  0.03613307247360198  0.7104206544729914  0.7159662260846759  1.0000
  O   O1        1.0  0.07884432009162912  0.2916792227353328  0.35397261947860414  1.0000
  O   O2        1.0  0.46714378851559923  0.3824273028961585  0.18392214919922925  1.0000
  O   O3        1.0  0.07526653252441577  0.7934271174354005  0.5245909982895965  1.0000
  O   O4        1.0  0.32753562989446994  0.4277067135684307  0.7678417359801781  1.0000
  O   O5        1.0  0.3620046074222613  0.936101526314319  0.1462339599038347  1.0000
  O   O6        1.0  0.9371499408290624  0.0161208852152388  0.12531931935212393  1.0000
  O   O7        1.0  0.5710556394663425  0.2623738603461665  0.7540002717053773  1.0000
  O   O8        1.0  0.8501126837962152  0.8517339169398606  0.6911188992166628  1.0000
  O   O9        1.0  0.9639452737204037  0.4207510979202005  0.7790628296768738  1.0000
  O   O10       1.0  0.4926940037557749  0.6614724348024354  0.5701243209894742  1.0000
  O   O11       1.0  0.8354179239054212  0.44740383464427985  0.23497655322647482  1.0000
  O   O12       1.0  0.5879159800077196  0.9740907861716045  0.33464555112364713  1.0000
data_image108
_chemical_formula_structural       Cd4S4O12
_chemical_formula_sum              "Cd4 S4 O12"
_cell_length_a       9.025715
_cell_length_b       4.573479000000001
_cell_length_c       7.283293351582442
_cell_angle_alpha    88.92985652425466
_cell_angle_beta     90.0
_cell_angle_gamma    90.0

_space_group_name_H-M_alt    "P 1"
_space_group_IT_number       1

loop_
  _space_group_symop_operation_xyz
  'x, y, z'

loop_
  _atom_site_type_symbol
  _atom_site_label
  _atom_site_symmetry_multiplicity
  _atom_site_fract_x
  _atom_site_fract_y
  _atom_site_fract_z
  _atom_site_occupancy
  Cd  Cd1       1.0  0.7619347079209712  0.5398658701994855  0.46983627112302073  1.0000
  Cd  Cd2       1.0  0.24502413456818153  0.5327867608931098  0.12610373671808586  1.0000
  Cd  Cd3       1.0  0.35564573968598917  0.13647444149740953  0.5399323201342785  1.0000
  Cd  Cd4       1.0  0.7876376366402003  0.22700006525703476  0.8679485909471398  1.0000
  S   S1        1.0  0.5013312232300178  0.03508844118972508  0.18829794549207116  1.0000
  S   S2        1.0  0.9320670960848019  0.11958727332486564  0.2901357022510279  1.0000
  S   S3        1.0  0.4525506430907977  0.5800647616065306  0.8254066073348795  1.0000
  S   S4        1.0  0.967189448418597  0.7577629401342568  0.7395644098474901  1.0000
  O   O1        1.0  0.07088716424109753  0.24561461349820032  0.17611182800394393  1.0000
  O   O2        1.0  0.4384198715561792  0.3133229620697768  0.2897793881517163  1.0000
  O   O3        1.0  0.04560123748899309  0.6065853284594163  0.5949130339921377  1.0000
  O   O4        1.0  0.29191716699559794  0.4032223855699786  0.7845082549509158  1.0000
  O   O5        1.0  0.3483026539904072  0.9246710026918863  0.1597486322764945  1.0000
  O   O6        1.0  0.9241568731792815  0.7777172449092471  0.26278885362158244  1.0000
  O   O7        1.0  0.5316728396433039  0.27025598335166673  0.8414841357557362  1.0000
  O   O8        1.0  0.7707957933027384  0.7654802074036697  0.7045480700457699  1.0000
  O   O9        1.0  0.9490250992852363  0.553483851764681  0.9081187780793404  1.0000
  O   O10       1.0  0.46382305078927255  0.7598514402127607  0.644526848734211  1.0000
  O   O11       1.0  0.7989612437771909  0.2833524642136163  0.18905828462381444  1.0000
  O   O12       1.0  0.6035561835913441  0.9478540532741089  0.3610615249577705  1.0000
data_image109
_chemical_formula_structural       Cd4S4O12
_chemical_formula_sum              "Cd4 S4 O12"
_cell_length_a       9.025715
_cell_length_b       4.573479000000001
_cell_length_c       7.283293351582442
_cell_angle_alpha    88.92985652425466
_cell_angle_beta     90.0
_cell_angle_gamma    90.0

_space_group_name_H-M_alt    "P 1"
_space_group_IT_number       1

loop_
  _space_group_symop_operation_xyz
  'x, y, z'

loop_
  _atom_site_type_symbol
  _atom_site_label
  _atom_site_symmetry_multiplicity
  _atom_site_fract_x
  _atom_site_fract_y
  _atom_site_fract_z
  _atom_site_occupancy
  Cd  Cd1       1.0  0.7733532327921784  0.5767545570495396  0.4064422532021603  1.0000
  Cd  Cd2       1.0  0.1998276259159182  0.5063976545720766  0.12911076189421142  1.0000
  Cd  Cd3       1.0  0.36738899097447947  0.19578964520638906  0.5748223221135608  1.0000
  Cd  Cd4       1.0  0.8167254539047827  0.2587464451060355  0.8527809658609827  1.0000
  S   S1        1.0  0.4921139119835557  0.05938274470274578  0.21938211291633536  1.0000
  S   S2        1.0  0.9380840505629743  0.16717250346553603  0.2220431574512985  1.0000
  S   S3        1.0  0.4329675468809586  0.5230135837613321  0.8304494763929027  1.0000
  S   S4        1.0  0.992393071460112  0.6444008647196615  0.7519327375741098  1.0000
  O   O1        1.0  0.07391348452776003  0.09135168149368336  0.1455525197260974  1.0000
  O   O2        1.0  0.40640163467497675  0.3099562527323851  0.3108883219210704  1.0000
  O   O3        1.0  0.029357337017358768  0.3774322759578248  0.6286575211490115  1.0000
  O   O4        1.0  0.3134346300472516  0.321145322056426  0.9067933148873675  1.0000
  O   O5        1.0  0.3217717284512255  0.8738121491826647  0.19962870126131568  1.0000
  O   O6        1.0  0.906546972726462  0.031535376423659556  0.41353102433900507  1.0000
  O   O7        1.0  0.584786958291518  0.3708671470114972  0.7825620174882871  1.0000
  O   O8        1.0  0.7975150077958569  0.7418105453002065  0.7429193296732007  1.0000
  O   O9        1.0  0.9931143550436569  0.5972706808446199  0.9565676818312993  1.0000
  O   O10       1.0  0.35986940788857963  0.6572635434306997  0.6550691948493391  1.0000
  O   O11       1.0  0.8060117134517247  0.9971173903213806  0.11912145127539024  1.0000
  O   O12       1.0  0.5918392305870214  0.9475950306654063  0.3768161276408456  1.0000
data_image110
_chemical_formula_structural       Cd4S4O12
_chemical_formula_sum              "Cd4 S4 O12"
_cell_length_a       9.025715
_cell_length_b       4.573479000000001
_cell_length_c       7.283293351582442
_cell_angle_alpha    88.92985652425466
_cell_angle_beta     90.0
_cell_angle_gamma    90.0

_space_group_name_H-M_alt    "P 1"
_space_group_IT_number       1

loop_
  _space_group_symop_operation_xyz
  'x, y, z'

loop_
  _atom_site_type_symbol
  _atom_site_label
  _atom_site_symmetry_multiplicity
  _atom_site_fract_x
  _atom_site_fract_y
  _atom_site_fract_z
  _atom_site_occupancy
  Cd  Cd1       1.0  0.781771130371245  0.6480535797420134  0.399884517289021  1.0000
  Cd  Cd2       1.0  0.2098876243014939  0.46958168818886586  0.13762037017000753  1.0000
  Cd  Cd3       1.0  0.35982721828368674  0.17352898558020768  0.5836010780820189  1.0000
  Cd  Cd4       1.0  0.7625916513671493  0.2063127747098361  0.8655849166222948  1.0000
  S   S1        1.0  0.43227586324128553  0.9244290897253624  0.27070652883418256  1.0000
  S   S2        1.0  0.9080085212803937  0.24321086551548884  0.20736064909959698  1.0000
  S   S3        1.0  0.4732463203987711  0.5965323094347803  0.8406328141571835  1.0000
  S   S4        1.0  0.060670428475779525  0.661338853032511  0.6958328328710935  1.0000
  O   O1        1.0  0.0626139846590501  0.1048283829490332  0.17605077875073047  1.0000
  O   O2        1.0  0.44277449314814926  0.2379376898507126  0.18708606402124192  1.0000
  O   O3        1.0  0.13825859998196674  0.41282795711032183  0.5580866747039549  1.0000
  O   O4        1.0  0.37178694480177005  0.3593099123721357  0.8858617246927278  1.0000
  O   O5        1.0  0.2928602448899335  0.8546193883632704  0.3650319865390064  1.0000
  O   O6        1.0  0.8624645838520115  0.23754159693669286  0.4496676925390218  1.0000
  O   O7        1.0  0.5976362181316301  0.40996113429191644  0.7280346986026619  1.0000
  O   O8        1.0  0.8801899118847402  0.763388994784629  0.6545451131467594  1.0000
  O   O9        1.0  0.042673454186535675  0.45841821445593534  0.8704858823551954  1.0000
  O   O10       1.0  0.4180930508333844  0.7659152543718306  0.6804464108204812  1.0000
  O   O11       1.0  0.7667267115543983  0.04690035038306596  0.15247362599961856  1.0000
  O   O12       1.0  0.5740091754012518  0.8683338904956647  0.39235370589429835  1.0000
data_image111
_chemical_formula_structural       Cd4S4O12
_chemical_formula_sum              "Cd4 S4 O12"
_cell_length_a       9.025715
_cell_length_b       4.573479000000001
_cell_length_c       7.283293351582442
_cell_angle_alpha    88.92985652425466
_cell_angle_beta     90.0
_cell_angle_gamma    90.0

_space_group_name_H-M_alt    "P 1"
_space_group_IT_number       1

loop_
  _space_group_symop_operation_xyz
  'x, y, z'

loop_
  _atom_site_type_symbol
  _atom_site_label
  _atom_site_symmetry_multiplicity
  _atom_site_fract_x
  _atom_site_fract_y
  _atom_site_fract_z
  _atom_site_occupancy
  Cd  Cd1       1.0  0.7753475684536435  0.7409792506918875  0.3845385856348456  1.0000
  Cd  Cd2       1.0  0.22157134806340628  0.3949993875417015  0.18233078842909897  1.0000
  Cd  Cd3       1.0  0.3181761548323635  0.25518906367427274  0.6162361801432106  1.0000
  Cd  Cd4       1.0  0.7922682801194785  0.20561810517495394  0.8073730311192142  1.0000
  S   S1        1.0  0.4601641440726302  0.8732527795259538  0.22048511434400556  1.0000
  S   S2        1.0  0.8976336322352491  0.21046280364432235  0.19359931339224548  1.0000
  S   S3        1.0  0.5132337236818297  0.6155703851096967  0.8666631114018015  1.0000
  S   S4        1.0  0.050579431716188505  0.6192073704827816  0.7309896586008556  1.0000
  O   O1        1.0  0.029394709367296157  0.0765324764102605  0.2735483242494586  1.0000
  O   O2        1.0  0.4663992232019737  0.17766208925523663  0.31703394807612734  1.0000
  O   O3        1.0  0.09776005782311922  0.4764331313833644  0.5495317958616874  1.0000
  O   O4        1.0  0.3917015501859596  0.331225963988627  0.8851523835152125  1.0000
  O   O5        1.0  0.2650682612937084  0.8403082847004868  0.2236841159169985  1.0000
  O   O6        1.0  0.8056818942483934  0.22996323356087545  0.3826592311717447  1.0000
  O   O7        1.0  0.5920983782739114  0.3906168608882402  0.6966536337669957  1.0000
  O   O8        1.0  0.9024227236732207  0.7384231395519709  0.6753864619677143  1.0000
  O   O9        1.0  0.041897337765566256  0.31531854885053523  0.8452109608368784  1.0000
  O   O10       1.0  0.4221883417433254  0.8178039376659372  0.7620191542333269  1.0000
  O   O11       1.0  0.8411584158118875  0.9082964280544329  0.09001116069865957  1.0000
  O   O12       1.0  0.5469948891240544  0.7233365846447972  0.3824094769255896  1.0000
data_image112
_chemical_formula_structural       Cd4S4O12
_chemical_formula_sum              "Cd4 S4 O12"
_cell_length_a       9.025715
_cell_length_b       4.573479000000001
_cell_length_c       7.283293351582442
_cell_angle_alpha    88.92985652425466
_cell_angle_beta     90.0
_cell_angle_gamma    90.0

_space_group_name_H-M_alt    "P 1"
_space_group_IT_number       1

loop_
  _space_group_symop_operation_xyz
  'x, y, z'

loop_
  _atom_site_type_symbol
  _atom_site_label
  _atom_site_symmetry_multiplicity
  _atom_site_fract_x
  _atom_site_fract_y
  _atom_site_fract_z
  _atom_site_occupancy
  Cd  Cd1       1.0  0.7733955739012119  0.7363558913684439  0.39846108976816474  1.0000
  Cd  Cd2       1.0  0.19202500174244846  0.2808505753252635  0.13510467977543927  1.0000
  Cd  Cd3       1.0  0.3752814515264615  0.3023526554437181  0.6367177737917968  1.0000
  Cd  Cd4       1.0  0.8027333559961698  0.12890796968990248  0.7372768494140671  1.0000
  S   S1        1.0  0.4447029298303757  0.9143639752375958  0.2253324316173492  1.0000
  S   S2        1.0  0.868238011720783  0.2586578524241844  0.2813324900713197  1.0000
  S   S3        1.0  0.5050415532906916  0.6404391493802197  0.8820215082612118  1.0000
  S   S4        1.0  0.049694590839885144  0.6772507569072177  0.7526778291766181  1.0000
  O   O1        1.0  0.011236384559940804  0.10085961025030452  0.3328887597451145  1.0000
  O   O2        1.0  0.3970438097011733  0.18057348600768017  0.3605889836538549  1.0000
  O   O3        1.0  0.134965502507674  0.6201297897239635  0.5907421633476615  1.0000
  O   O4        1.0  0.3726692664845412  0.5008907168571886  0.9488586621478361  1.0000
  O   O5        1.0  0.27810686108192145  0.7920972364511247  0.15981584709561322  1.0000
  O   O6        1.0  0.761690902647873  0.2592317435966289  0.45114492612217855  1.0000
  O   O7        1.0  0.6194805131439837  0.4258442805116042  0.8095773723295011  1.0000
  O   O8        1.0  0.8943185824915156  0.7514844628506365  0.6549619599477784  1.0000
  O   O9        1.0  0.04941094479491759  0.3985723892383689  0.8628738379378451  1.0000
  O   O10       1.0  0.4327100746919121  0.8639603966497562  0.7341943257007837  1.0000
  O   O11       1.0  0.7976207680226696  0.10778683839310353  0.1306355822427961  1.0000
  O   O12       1.0  0.5121844910042908  0.7116709729458812  0.3694496148629502  1.0000
data_image113
_chemical_formula_structural       Cd4S4O12
_chemical_formula_sum              "Cd4 S4 O12"
_cell_length_a       9.025715
_cell_length_b       4.573479000000001
_cell_length_c       7.283293351582442
_cell_angle_alpha    88.92985652425466
_cell_angle_beta     90.0
_cell_angle_gamma    90.0

_space_group_name_H-M_alt    "P 1"
_space_group_IT_number       1

loop_
  _space_group_symop_operation_xyz
  'x, y, z'

loop_
  _atom_site_type_symbol
  _atom_site_label
  _atom_site_symmetry_multiplicity
  _atom_site_fract_x
  _atom_site_fract_y
  _atom_site_fract_z
  _atom_site_occupancy
  Cd  Cd1       1.0  0.7237386895098392  0.7649977815591753  0.3682812864564291  1.0000
  Cd  Cd2       1.0  0.1603197551531072  0.2814575229217937  0.1375599345017948  1.0000
  Cd  Cd3       1.0  0.4218562575818719  0.3114417968329332  0.6178392698577372  1.0000
  Cd  Cd4       1.0  0.8093224650710849  0.14506969061370145  0.7721366057860928  1.0000
  S   S1        1.0  0.384907766898102  0.8554279826343325  0.2375303135075637  1.0000
  S   S2        1.0  0.826560827354959  0.29689755587937094  0.251102477441059  1.0000
  S   S3        1.0  0.5730524931725807  0.7015867390705981  0.9128416173551146  1.0000
  S   S4        1.0  0.07591638675014134  0.5531535381674044  0.7522145411620758  1.0000
  O   O1        1.0  0.9847123600538489  0.27172201676249413  0.34627060610907884  1.0000
  O   O2        1.0  0.38770378394183197  0.152970300152325  0.36978619057614903  1.0000
  O   O3        1.0  0.19402824773657862  0.4932358473535311  0.6096637303152141  1.0000
  O   O4        1.0  0.48586395355471246  0.4317570338155994  0.9139807433361888  1.0000
  O   O5        1.0  0.21429119906708333  0.8495382082828609  0.1535368158331907  1.0000
  O   O6        1.0  0.7303052750293086  0.1975748262957654  0.4270998235251738  1.0000
  O   O7        1.0  0.7327538021715442  0.5580580210764275  0.9093119062904221  1.0000
  O   O8        1.0  0.9404963692386125  0.7380377978648093  0.6692533687026138  1.0000
  O   O9        1.0  0.016471277091491432  0.3012138982428678  0.8777368141558853  1.0000
  O   O10       1.0  0.5663812483460048  0.8079355262899366  0.7091288085287221  1.0000
  O   O11       1.0  0.8056470505712658  0.05639945347151582  0.12596199951846174  1.0000
  O   O12       1.0  0.4147782631008051  0.6293648337952931  0.35647784209694733  1.0000
data_image114
_chemical_formula_structural       Cd4S4O12
_chemical_formula_sum              "Cd4 S4 O12"
_cell_length_a       9.025715
_cell_length_b       4.573479000000001
_cell_length_c       7.283293351582442
_cell_angle_alpha    88.92985652425466
_cell_angle_beta     90.0
_cell_angle_gamma    90.0

_space_group_name_H-M_alt    "P 1"
_space_group_IT_number       1

loop_
  _space_group_symop_operation_xyz
  'x, y, z'

loop_
  _atom_site_type_symbol
  _atom_site_label
  _atom_site_symmetry_multiplicity
  _atom_site_fract_x
  _atom_site_fract_y
  _atom_site_fract_z
  _atom_site_occupancy
  Cd  Cd1       1.0  0.6831679861021571  0.746265217621905  0.38797324822777224  1.0000
  Cd  Cd2       1.0  0.18964719944855196  0.30671393424678245  0.10992998353654211  1.0000
  Cd  Cd3       1.0  0.44925571328744957  0.32908416119196116  0.6086100353996922  1.0000
  Cd  Cd4       1.0  0.8277692409528871  0.11146717719052712  0.7530442910885302  1.0000
  S   S1        1.0  0.37585830543762727  0.8742781092722114  0.27108885710905334  1.0000
  S   S2        1.0  0.8328916663661026  0.27997308820922634  0.3013691549673295  1.0000
  S   S3        1.0  0.5605709633921284  0.723713102979934  0.9067522355777345  1.0000
  S   S4        1.0  0.07788961284195484  0.6122232350192017  0.73964734610192  1.0000
  O   O1        1.0  0.9923129768652977  0.1712005761981054  0.3141129158444515  1.0000
  O   O2        1.0  0.3181689349249645  0.01887156562061145  0.42548859080758306  1.0000
  O   O3        1.0  0.15761880625893163  0.3317598920803534  0.6849988268525756  1.0000
  O   O4        1.0  0.4412778312497885  0.4318457639714457  0.9148069216214505  1.0000
  O   O5        1.0  0.243539428522831  0.7366316408962602  0.21512772684321313  1.0000
  O   O6        1.0  0.7439149044006774  0.23223061464864048  0.47252730858273045  1.0000
  O   O7        1.0  0.7235281760264226  0.672203029620892  0.8583224456077818  1.0000
  O   O8        1.0  0.9534986531565167  0.676954508200926  0.6006443588220952  1.0000
  O   O9        1.0  0.979885011758754  0.47133587762096474  0.936749444971818  1.0000
  O   O10       1.0  0.4908667098803325  0.894600617628952  0.7320141064531331  1.0000
  O   O11       1.0  0.7460241408776045  0.16691099902535556  0.13024250297990192  1.0000
  O   O12       1.0  0.4579173342534494  0.5786774915591979  0.30112331349421695  1.0000
data_image115
_chemical_formula_structural       Cd4S4O12
_chemical_formula_sum              "Cd4 S4 O12"
_cell_length_a       9.025715
_cell_length_b       4.573479000000001
_cell_length_c       7.283293351582442
_cell_angle_alpha    88.92985652425466
_cell_angle_beta     90.0
_cell_angle_gamma    90.0

_space_group_name_H-M_alt    "P 1"
_space_group_IT_number       1

loop_
  _space_group_symop_operation_xyz
  'x, y, z'

loop_
  _atom_site_type_symbol
  _atom_site_label
  _atom_site_symmetry_multiplicity
  _atom_site_fract_x
  _atom_site_fract_y
  _atom_site_fract_z
  _atom_site_occupancy
  Cd  Cd1       1.0  0.7001075203263366  0.7062932494358614  0.4406915470889466  1.0000
  Cd  Cd2       1.0  0.23013148503567585  0.3155060155959164  0.10204343628751308  1.0000
  Cd  Cd3       1.0  0.4421533404995163  0.32321220743515755  0.5950649666764507  1.0000
  Cd  Cd4       1.0  0.8452669468882349  0.1910463919439973  0.744773704067897  1.0000
  S   S1        1.0  0.29724876928582056  0.886668328338411  0.3043319140658127  1.0000
  S   S2        1.0  0.865762391330098  0.33016354073408777  0.1672002003272685  1.0000
  S   S3        1.0  0.523127162224022  0.6570802649345793  0.9316975991633291  1.0000
  S   S4        1.0  0.07068732053294235  0.605827993411628  0.7459884057519166  1.0000
  O   O1        1.0  0.9997095415892296  0.35325935690888205  0.26665463897980585  1.0000
  O   O2        1.0  0.2357497179360772  0.9498497213498017  0.4713834703882155  1.0000
  O   O3        1.0  0.1464657913233286  0.44165052543803107  0.5950361940938598  1.0000
  O   O4        1.0  0.43570997048166926  0.3717257078740295  0.956954052535274  1.0000
  O   O5        1.0  0.16156947152079765  0.7680175154438516  0.16087978332898806  1.0000
  O   O6        1.0  0.6656457214353939  0.19740775764648222  0.526833846236413  1.0000
  O   O7        1.0  0.6672704433807677  0.5440064797611774  0.8921258602997963  1.0000
  O   O8        1.0  0.8949435374734274  0.6564101477501891  0.6957929515186775  1.0000
  O   O9        1.0  0.08556089108289111  0.3513472365693818  0.8794715010545533  1.0000
  O   O10       1.0  0.4412347241132543  0.749905893831293  0.7308224339867079  1.0000
  O   O11       1.0  0.8119845541373493  0.03894009563549749  0.11945904701076615  1.0000
  O   O12       1.0  0.40854172918970943  0.6774332065776298  0.2719135311518888  1.0000
data_image116
_chemical_formula_structural       Cd4S4O12
_chemical_formula_sum              "Cd4 S4 O12"
_cell_length_a       9.025715
_cell_length_b       4.573479000000001
_cell_length_c       7.283293351582442
_cell_angle_alpha    88.92985652425466
_cell_angle_beta     90.0
_cell_angle_gamma    90.0

_space_group_name_H-M_alt    "P 1"
_space_group_IT_number       1

loop_
  _space_group_symop_operation_xyz
  'x, y, z'

loop_
  _atom_site_type_symbol
  _atom_site_label
  _atom_site_symmetry_multiplicity
  _atom_site_fract_x
  _atom_site_fract_y
  _atom_site_fract_z
  _atom_site_occupancy
  Cd  Cd1       1.0  0.7261674896650437  0.7771573263923409  0.48723324018965597  1.0000
  Cd  Cd2       1.0  0.2543136332219896  0.3515396088605564  0.07195822332985433  1.0000
  Cd  Cd3       1.0  0.3981786944474261  0.2505611805532628  0.6466090810827356  1.0000
  Cd  Cd4       1.0  0.7887087964506981  0.21131836447968055  0.7220755294491987  1.0000
  S   S1        1.0  0.3221228575281652  0.8756274539102351  0.29036583686051143  1.0000
  S   S2        1.0  0.8547561015444911  0.22698842273074993  0.18548135059770016  1.0000
  S   S3        1.0  0.5639742598516959  0.646344609241593  0.9148209285777112  1.0000
  S   S4        1.0  0.0774713041750601  0.5508022684703908  0.6816557612758724  1.0000
  O   O1        1.0  0.9907500539314796  0.3850327614171922  0.1567156050678128  1.0000
  O   O2        1.0  0.2642412580960344  0.06241137994281161  0.43662547400053  1.0000
  O   O3        1.0  0.038708981553201724  0.5827728195567681  0.48136504412194564  1.0000
  O   O4        1.0  0.5198536007848508  0.29954016048211574  0.9466751409363424  1.0000
  O   O5        1.0  0.22335557240075177  0.7766843899131025  0.12660833183935832  1.0000
  O   O6        1.0  0.6529152143378977  0.22618167195058314  0.49921444605194515  1.0000
  O   O7        1.0  0.7184153739978427  0.630214925577318  0.8876144659070828  1.0000
  O   O8        1.0  0.944155683107195  0.6621404644255535  0.7662032418138532  1.0000
  O   O9        1.0  0.06747222732888303  0.23195927098986935  0.7497481951476663  1.0000
  O   O10       1.0  0.5073094702909143  0.7368926411428596  0.7147652009989849  1.0000
  O   O11       1.0  0.8709914171469598  0.9229604721714662  0.2600006562032128  1.0000
  O   O12       1.0  0.38505627746118093  0.5664886788205368  0.375681058407779  1.0000
data_image117
_chemical_formula_structural       Cd4S4O12
_chemical_formula_sum              "Cd4 S4 O12"
_cell_length_a       9.025715
_cell_length_b       4.573479000000001
_cell_length_c       7.283293351582442
_cell_angle_alpha    88.92985652425466
_cell_angle_beta     90.0
_cell_angle_gamma    90.0

_space_group_name_H-M_alt    "P 1"
_space_group_IT_number       1

loop_
  _space_group_symop_operation_xyz
  'x, y, z'

loop_
  _atom_site_type_symbol
  _atom_site_label
  _atom_site_symmetry_multiplicity
  _atom_site_fract_x
  _atom_site_fract_y
  _atom_site_fract_z
  _atom_site_occupancy
  Cd  Cd1       1.0  0.7271172467121197  0.741504391226958  0.4588760812928589  1.0000
  Cd  Cd2       1.0  0.23663559573963328  0.3654037370524824  0.03755931974856421  1.0000
  Cd  Cd3       1.0  0.365600472103645  0.2588902226096312  0.6679007213048397  1.0000
  Cd  Cd4       1.0  0.8164198806881978  0.1771191337689908  0.7651256591558607  1.0000
  S   S1        1.0  0.3749983875649577  0.8469072856058942  0.3251679359138925  1.0000
  S   S2        1.0  0.8974162071598772  0.1836967362587459  0.12124160721448443  1.0000
  S   S3        1.0  0.5543070172765188  0.7106981778008765  0.9540929156811062  1.0000
  S   S4        1.0  0.060720677587639216  0.6125815842092783  0.5990343785131517  1.0000
  O   O1        1.0  0.050456922048213615  0.29735530909193414  0.17628222866612314  1.0000
  O   O2        1.0  0.2663540275754524  0.032544903120304704  0.44879836053231453  1.0000
  O   O3        1.0  0.06592908260112586  0.46079375111289644  0.42708490766276475  1.0000
  O   O4        1.0  0.4686426302181404  0.4065536395807947  0.004055747791230857  1.0000
  O   O5        1.0  0.2963833693471787  0.8806465999622115  0.157058272671267  1.0000
  O   O6        1.0  0.6509933933798353  0.2798642622138108  0.500391604259062  1.0000
  O   O7        1.0  0.7006713051834973  0.6625009926839835  0.9077327923425622  1.0000
  O   O8        1.0  0.8790494287735694  0.6399740018500323  0.6545816473976996  1.0000
  O   O9        1.0  0.10033808428943902  0.34347797312102146  0.7917004775667559  1.0000
  O   O10       1.0  0.4452527500566158  0.8147251828690854  0.7985381494256689  1.0000
  O   O11       1.0  0.8999057117547693  0.9087201890510218  0.24074504136495675  1.0000
  O   O12       1.0  0.37239120587903796  0.5748173962010805  0.4376832389354495  1.0000
data_image118
_chemical_formula_structural       Cd4S4O12
_chemical_formula_sum              "Cd4 S4 O12"
_cell_length_a       9.025715
_cell_length_b       4.573479000000001
_cell_length_c       7.283293351582442
_cell_angle_alpha    88.92985652425466
_cell_angle_beta     90.0
_cell_angle_gamma    90.0

_space_group_name_H-M_alt    "P 1"
_space_group_IT_number       1

loop_
  _space_group_symop_operation_xyz
  'x, y, z'

loop_
  _atom_site_type_symbol
  _atom_site_label
  _atom_site_symmetry_multiplicity
  _atom_site_fract_x
  _atom_site_fract_y
  _atom_site_fract_z
  _atom_site_occupancy
  Cd  Cd1       1.0  0.7122333826569467  0.6423698879297992  0.4570091143336153  1.0000
  Cd  Cd2       1.0  0.23780335764941538  0.4218874484796533  0.018586242413775152  1.0000
  Cd  Cd3       1.0  0.40798583581077963  0.33381399684841434  0.6686419361654966  1.0000
  Cd  Cd4       1.0  0.8255037563217966  0.15832572962144398  0.7674778356598223  1.0000
  S   S1        1.0  0.3467433166673748  0.8797116734031504  0.3202884888606544  1.0000
  S   S2        1.0  0.8285562979385594  0.11992421254685055  0.12145641998974667  1.0000
  S   S3        1.0  0.5532182574278519  0.7470279426423161  0.9831313824836322  1.0000
  S   S4        1.0  0.06644702378978118  0.635002645734891  0.5851835583734776  1.0000
  O   O1        1.0  0.9777217268124608  0.2691817150389614  0.07139102603996789  1.0000
  O   O2        1.0  0.29629367831191716  0.950818322419809  0.5163686346083391  1.0000
  O   O3        1.0  0.9469701997613158  0.4365086591551628  0.5084974425445012  1.0000
  O   O4        1.0  0.49187695327226766  0.38130583161932297  0.9920275704237745  1.0000
  O   O5        1.0  0.17660964423341285  0.8071315238999018  0.2227991313306945  1.0000
  O   O6        1.0  0.6414990632805045  0.12997231806616838  0.5428490666238881  1.0000
  O   O7        1.0  0.7183197774185314  0.6739505924544434  0.8894795044651547  1.0000
  O   O8        1.0  0.012991656025211906  0.8414207699572982  0.7354791180343987  1.0000
  O   O9        1.0  0.13730048794365723  0.3549613851564598  0.7104669633870146  1.0000
  O   O10       1.0  0.4324159368274557  0.8728639817881765  0.8522901276060846  1.0000
  O   O11       1.0  0.8465750160301873  0.8214682993624776  0.21648945044490184  1.0000
  O   O12       1.0  0.44079522814977573  0.6083260152070686  0.3801431106994614  1.0000
data_image119
_chemical_formula_structural       Cd4S4O12
_chemical_formula_sum              "Cd4 S4 O12"
_cell_length_a       9.025715
_cell_length_b       4.573479000000001
_cell_length_c       7.283293351582442
_cell_angle_alpha    88.92985652425466
_cell_angle_beta     90.0
_cell_angle_gamma    90.0

_space_group_name_H-M_alt    "P 1"
_space_group_IT_number       1

loop_
  _space_group_symop_operation_xyz
  'x, y, z'

loop_
  _atom_site_type_symbol
  _atom_site_label
  _atom_site_symmetry_multiplicity
  _atom_site_fract_x
  _atom_site_fract_y
  _atom_site_fract_z
  _atom_site_occupancy
  Cd  Cd1       1.0  0.6730359461393242  0.6364983132606482  0.49581037295667224  1.0000
  Cd  Cd2       1.0  0.1932030089184217  0.36882255369673134  0.9889420164960457  1.0000
  Cd  Cd3       1.0  0.4097606087181358  0.3650115442057131  0.6230396711476043  1.0000
  Cd  Cd4       1.0  0.8413962250869523  0.17570457908851878  0.78454955943396  1.0000
  S   S1        1.0  0.35899631712696267  0.9580461576857586  0.31913020570888817  1.0000
  S   S2        1.0  0.8331221668700811  0.2713283428050836  0.1850083571040879  1.0000
  S   S3        1.0  0.57136241269878  0.5772853875693957  0.9938495526464957  1.0000
  S   S4        1.0  0.08855841428875477  0.6285577865526737  0.5993462091144579  1.0000
  O   O1        1.0  0.9581089388822814  0.31750170567272556  0.07212736240167204  1.0000
  O   O2        1.0  0.34959623882286234  0.8962969558305687  0.5278541539340375  1.0000
  O   O3        1.0  0.9470129176490385  0.466581311958686  0.5438569337974147  1.0000
  O   O4        1.0  0.63812034628713  0.28352334259469014  0.002252626178494088  1.0000
  O   O5        1.0  0.27078423972537413  0.7415158241250924  0.23635546563724144  1.0000
  O   O6        1.0  0.652599497700479  0.11346303315622908  0.5559599095733192  1.0000
  O   O7        1.0  0.6537196996896392  0.6767028912608175  0.8222440551742798  1.0000
  O   O8        1.0  0.05933393929423225  0.809012951445016  0.7780171342368712  1.0000
  O   O9        1.0  0.18785522925096831  0.4038087881444208  0.6787862376509611  1.0000
  O   O10       1.0  0.4179652702713832  0.5352967473746333  0.911556935452512  1.0000
  O   O11       1.0  0.8181173627672034  0.9388292867372466  0.1950604467033539  1.0000
  O   O12       1.0  0.5139797255891095  0.9340821183260384  0.26981594569525996  1.0000
data_image120
_chemical_formula_structural       Cd4S4O12
_chemical_formula_sum              "Cd4 S4 O12"
_cell_length_a       9.025715
_cell_length_b       4.573479000000001
_cell_length_c       7.283293351582442
_cell_angle_alpha    88.92985652425466
_cell_angle_beta     90.0
_cell_angle_gamma    90.0

_space_group_name_H-M_alt    "P 1"
_space_group_IT_number       1

loop_
  _space_group_symop_operation_xyz
  'x, y, z'

loop_
  _atom_site_type_symbol
  _atom_site_label
  _atom_site_symmetry_multiplicity
  _atom_site_fract_x
  _atom_site_fract_y
  _atom_site_fract_z
  _atom_site_occupancy
  Cd  Cd1       1.0  0.6399620962313498  0.7399764748684668  0.5026380744277815  1.0000
  Cd  Cd2       1.0  0.1669664976586898  0.3825194709410438  0.9814653685477709  1.0000
  Cd  Cd3       1.0  0.42105710221208764  0.23624625273959796  0.5824283304485525  1.0000
  Cd  Cd4       1.0  0.8583295104993172  0.14984520637395105  0.7830026800502993  1.0000
  S   S1        1.0  0.28882490907564146  0.8604014956447217  0.2853988979922519  1.0000
  S   S2        1.0  0.8706189959571233  0.2574512544939768  0.23689306907213561  1.0000
  S   S3        1.0  0.6244845158972376  0.5691043941037548  0.9957330253161527  1.0000
  S   S4        1.0  0.05786130051491467  0.6808556095829471  0.6435501999555526  1.0000
  O   O1        1.0  0.0014753900207029602  0.4241965015761344  0.23735938116279215  1.0000
  O   O2        1.0  0.37357972205469087  0.7750897542877259  0.5036028112258047  1.0000
  O   O3        1.0  0.9001748912297397  0.6132628382282543  0.5985742511027207  1.0000
  O   O4        1.0  0.7951871134661392  0.4746076682696321  0.04480939598072764  1.0000
  O   O5        1.0  0.2921562919059555  0.5221296305391182  0.26497449267404466  1.0000
  O   O6        1.0  0.6758119536410255  0.25069783235464405  0.5047558035463061  1.0000
  O   O7        1.0  0.6710088496497203  0.8421630610615608  0.8788346922497119  1.0000
  O   O8        1.0  0.0613091052689001  0.8865294524588095  0.840267339101802  1.0000
  O   O9        1.0  0.1491453080260099  0.3792401608138296  0.7015786794622243  1.0000
  O   O10       1.0  0.5195287085055843  0.39982935026202093  0.8568371380715301  1.0000
  O   O11       1.0  0.8754331754551664  0.9485303746308488  0.16136184944322474  1.0000
  O   O12       1.0  0.3900891862527621  0.00476218967126678  0.16611184663721584  1.0000
data_image121
_chemical_formula_structural       Cd4S4O12
_chemical_formula_sum              "Cd4 S4 O12"
_cell_length_a       9.025715
_cell_length_b       4.573479000000001
_cell_length_c       7.283293351582442
_cell_angle_alpha    88.92985652425466
_cell_angle_beta     90.0
_cell_angle_gamma    90.0

_space_group_name_H-M_alt    "P 1"
_space_group_IT_number       1

loop_
  _space_group_symop_operation_xyz
  'x, y, z'

loop_
  _atom_site_type_symbol
  _atom_site_label
  _atom_site_symmetry_multiplicity
  _atom_site_fract_x
  _atom_site_fract_y
  _atom_site_fract_z
  _atom_site_occupancy
  Cd  Cd1       1.0  0.5955278890127781  0.8299989339813876  0.5597919526764383  1.0000
  Cd  Cd2       1.0  0.18227854738656438  0.278090894554874  0.9736724914884471  1.0000
  Cd  Cd3       1.0  0.4329253693520951  0.31682559447442427  0.5642333458834287  1.0000
  Cd  Cd4       1.0  0.8430495906645492  0.17375877426409447  0.7381058842908934  1.0000
  S   S1        1.0  0.3021719200915389  0.7264658341493779  0.31384538324498473  1.0000
  S   S2        1.0  0.8785667308486358  0.25553541870185437  0.18688789405192405  1.0000
  S   S3        1.0  0.5857026572400994  0.4990116261716755  0.9620549287311402  1.0000
  S   S4        1.0  0.09664509225318785  0.7232758707980292  0.6613170004316891  1.0000
  O   O1        1.0  0.9498745621599333  0.3973064652923972  0.3389218273899603  1.0000
  O   O2        1.0  0.3590944997655531  0.8500009541201741  0.5526837819283762  1.0000
  O   O3        1.0  0.911566366987087  0.7206400492295502  0.6451897707024442  1.0000
  O   O4        1.0  0.8524030770236164  0.4142200702727359  0.004999352113630007  1.0000
  O   O5        1.0  0.37279701647192026  0.42427983210670545  0.29084290207999963  1.0000
  O   O6        1.0  0.6472208739532131  0.32151026936510674  0.5530894497874793  1.0000
  O   O7        1.0  0.6785132066906506  0.6414423456042376  0.8181778291650001  1.0000
  O   O8        1.0  0.15296410496241997  0.8191629279010793  0.8444882202441233  1.0000
  O   O9        1.0  0.1093688109461195  0.3929746908082664  0.7031102670448287  1.0000
  O   O10       1.0  0.48286895647885203  0.3217061723326655  0.8811530257087422  1.0000
  O   O11       1.0  0.0038491350382614535  0.026360469141692072  0.09999011003902603  1.0000
  O   O12       1.0  0.37527229188275546  0.8979427795437898  0.18230115899518085  1.0000
data_image122
_chemical_formula_structural       Cd4S4O12
_chemical_formula_sum              "Cd4 S4 O12"
_cell_length_a       9.025715
_cell_length_b       4.573479000000001
_cell_length_c       7.283293351582442
_cell_angle_alpha    88.92985652425466
_cell_angle_beta     90.0
_cell_angle_gamma    90.0

_space_group_name_H-M_alt    "P 1"
_space_group_IT_number       1

loop_
  _space_group_symop_operation_xyz
  'x, y, z'

loop_
  _atom_site_type_symbol
  _atom_site_label
  _atom_site_symmetry_multiplicity
  _atom_site_fract_x
  _atom_site_fract_y
  _atom_site_fract_z
  _atom_site_occupancy
  Cd  Cd1       1.0  0.6366319141043232  0.7797764832986157  0.6335846395583217  1.0000
  Cd  Cd2       1.0  0.2099322248654507  0.25443409253253324  0.9687864341118817  1.0000
  Cd  Cd3       1.0  0.3726073673539495  0.3335280568374071  0.586514377904395  1.0000
  Cd  Cd4       1.0  0.8433630996419725  0.17651459850158369  0.6897966326933483  1.0000
  S   S1        1.0  0.2679870555504269  0.78221401489125  0.23343779716108876  1.0000
  S   S2        1.0  0.9294934133394012  0.23978219532216413  0.17031096200411522  1.0000
  S   S3        1.0  0.5379613120109713  0.5616923365736963  0.030602569808176217  1.0000
  S   S4        1.0  0.09118338268767179  0.6654604694527042  0.6163188260490118  1.0000
  O   O1        1.0  0.8793089122124443  0.51094273557014  0.2522362424284074  1.0000
  O   O2        1.0  0.3649595641712446  0.8788532574610142  0.4282803973785886  1.0000
  O   O3        1.0  0.9432606636917472  0.6955767944245483  0.684817535092931  1.0000
  O   O4        1.0  0.9571131310051455  0.26614832133898125  0.9510954800306831  1.0000
  O   O5        1.0  0.32586882989513716  0.4699911867748304  0.23911848475885433  1.0000
  O   O6        1.0  0.6513688740439993  0.3024472626482453  0.5740138946597412  1.0000
  O   O7        1.0  0.6132446865370917  0.7954532111901621  0.9575552991725108  1.0000
  O   O8        1.0  0.18242079613526418  0.7467084809567364  0.8082771162884684  1.0000
  O   O9        1.0  0.1276349111806916  0.34699639723643616  0.613168331293291  1.0000
  O   O10       1.0  0.4322904322046553  0.4030175095792099  0.8725797654352757  1.0000
  O   O11       1.0  0.06543017940685192  0.13958508290988636  0.24662521639508778  1.0000
  O   O12       1.0  0.3612155092903699  0.9734937401624072  0.11504763932636851  1.0000
data_image123
_chemical_formula_structural       Cd4S4O12
_chemical_formula_sum              "Cd4 S4 O12"
_cell_length_a       9.025715
_cell_length_b       4.573479000000001
_cell_length_c       7.283293351582442
_cell_angle_alpha    88.92985652425466
_cell_angle_beta     90.0
_cell_angle_gamma    90.0

_space_group_name_H-M_alt    "P 1"
_space_group_IT_number       1

loop_
  _space_group_symop_operation_xyz
  'x, y, z'

loop_
  _atom_site_type_symbol
  _atom_site_label
  _atom_site_symmetry_multiplicity
  _atom_site_fract_x
  _atom_site_fract_y
  _atom_site_fract_z
  _atom_site_occupancy
  Cd  Cd1       1.0  0.6243525799093583  0.7372714990080393  0.671941440420464  1.0000
  Cd  Cd2       1.0  0.2174354540972861  0.3022562035010167  0.9412641208462545  1.0000
  Cd  Cd3       1.0  0.37275858484082836  0.25697781917216483  0.5232044971029064  1.0000
  Cd  Cd4       1.0  0.8513646805531153  0.22676939163807686  0.691568978647496  1.0000
  S   S1        1.0  0.3009377541494628  0.7818911139363461  0.26406236158097746  1.0000
  S   S2        1.0  0.8967857437439098  0.2010015721836613  0.1730360052861198  1.0000
  S   S3        1.0  0.5790812459803486  0.7148267636458894  0.052793651355761195  1.0000
  S   S4        1.0  0.05439165745837338  0.6923443625523604  0.6656716672053433  1.0000
  O   O1        1.0  0.8591600179128284  0.5382345191312163  0.18077806804837546  1.0000
  O   O2        1.0  0.43709429753676565  0.7566093426009777  0.4295505263879032  1.0000
  O   O3        1.0  0.8875524737229387  0.6817814442856654  0.6927097881888986  1.0000
  O   O4        1.0  0.9479549637010872  0.0902046149474729  0.9740704504857034  1.0000
  O   O5        1.0  0.2965495032756836  0.4409797608932534  0.2398314199390364  1.0000
  O   O6        1.0  0.6391381781054677  0.28927254341568664  0.5830508345105783  1.0000
  O   O7        1.0  0.6460908041587827  0.975743037411152  0.004154432616201298  1.0000
  O   O8        1.0  0.14509124239818605  0.7022456509720144  0.8456800360540814  1.0000
  O   O9        1.0  0.08729594958838605  0.38333692259516083  0.6173252037054204  1.0000
  O   O10       1.0  0.507067733008112  0.5137829924107629  0.9305786494462989  1.0000
  O   O11       1.0  0.025630323628367733  0.12065540789695309  0.28744529933219226  1.0000
  O   O12       1.0  0.37783674871604  0.9052116351108928  0.09930815292298861  1.0000
data_image124
_chemical_formula_structural       Cd4S4O12
_chemical_formula_sum              "Cd4 S4 O12"
_cell_length_a       9.025715
_cell_length_b       4.573479000000001
_cell_length_c       7.283293351582442
_cell_angle_alpha    88.92985652425466
_cell_angle_beta     90.0
_cell_angle_gamma    90.0

_space_group_name_H-M_alt    "P 1"
_space_group_IT_number       1

loop_
  _space_group_symop_operation_xyz
  'x, y, z'

loop_
  _atom_site_type_symbol
  _atom_site_label
  _atom_site_symmetry_multiplicity
  _atom_site_fract_x
  _atom_site_fract_y
  _atom_site_fract_z
  _atom_site_occupancy
  Cd  Cd1       1.0  0.6114773461752174  0.7378344766051848  0.6637486478995259  1.0000
  Cd  Cd2       1.0  0.20499654850686244  0.27618965858310046  0.9380446564423047  1.0000
  Cd  Cd3       1.0  0.3871696691027877  0.21341253576197605  0.5674925414438857  1.0000
  Cd  Cd4       1.0  0.8704451410345978  0.16795063310575253  0.6868959254911985  1.0000
  S   S1        1.0  0.24021716956712053  0.8263712171824815  0.2136628118568926  1.0000
  S   S2        1.0  0.8607950701703383  0.3357561100338191  0.1743323992489825  1.0000
  S   S3        1.0  0.6037600043558847  0.7324886375420625  0.07717971984665528  1.0000
  S   S4        1.0  0.11250475803519255  0.6948617265663558  0.6153587660888925  1.0000
  O   O1        1.0  0.8510474972460842  0.6189518907556081  0.2671245978167599  1.0000
  O   O2        1.0  0.2791921108697849  0.8431788281984485  0.4355513409697608  1.0000
  O   O3        1.0  0.9542036032484207  0.6132792598580205  0.6739272555062756  1.0000
  O   O4        1.0  0.9476939151434907  0.3551892780817161  0.9820163125121693  1.0000
  O   O5        1.0  0.2152625249823171  0.4967018388291085  0.18985172965447222  1.0000
  O   O6        1.0  0.6271958228497786  0.20678614103666126  0.6130633041198316  1.0000
  O   O7        1.0  0.7292586735497065  0.9014537949657832  0.9933582099667133  1.0000
  O   O8        1.0  0.17095241423503826  0.8878506131578822  0.7475249908695544  1.0000
  O   O9        1.0  0.17730458072773225  0.366714838790582  0.6119442941155906  1.0000
  O   O10       1.0  0.5237489988090822  0.5667149553551414  0.9216211120841714  1.0000
  O   O11       1.0  0.9628561446423595  0.11652782728668337  0.2970458419505847  1.0000
  O   O12       1.0  0.3922295099791461  0.943390328112404  0.0998493322946211  1.0000
data_image125
_chemical_formula_structural       Cd4S4O12
_chemical_formula_sum              "Cd4 S4 O12"
_cell_length_a       9.025715
_cell_length_b       4.573479000000001
_cell_length_c       7.283293351582442
_cell_angle_alpha    88.92985652425466
_cell_angle_beta     90.0
_cell_angle_gamma    90.0

_space_group_name_H-M_alt    "P 1"
_space_group_IT_number       1

loop_
  _space_group_symop_operation_xyz
  'x, y, z'

loop_
  _atom_site_type_symbol
  _atom_site_label
  _atom_site_symmetry_multiplicity
  _atom_site_fract_x
  _atom_site_fract_y
  _atom_site_fract_z
  _atom_site_occupancy
  Cd  Cd1       1.0  0.6179209487788795  0.7467864088490078  0.6072349042250973  1.0000
  Cd  Cd2       1.0  0.16977761133586936  0.3006563560703079  0.9652622290977215  1.0000
  Cd  Cd3       1.0  0.42075840702912454  0.32835715738524396  0.611344035142899  1.0000
  Cd  Cd4       1.0  0.8638789146396736  0.15436150742882293  0.711275705699229  1.0000
  S   S1        1.0  0.28649825531477274  0.8588642704789378  0.21605704176263632  1.0000
  S   S2        1.0  0.8217281791777927  0.2884558048340197  0.2425035207152397  1.0000
  S   S3        1.0  0.5904035235291016  0.7179504844823006  0.012457423791688127  1.0000
  S   S4        1.0  0.12822278086480177  0.4619935475767104  0.5561469833914424  1.0000
  O   O1        1.0  0.7543856502328589  0.5880693288577076  0.31378755504389044  1.0000
  O   O2        1.0  0.41653477970442315  0.9627406329451054  0.31646010465960983  1.0000
  O   O3        1.0  0.9976466618634211  0.572921066986698  0.7011893118643103  1.0000
  O   O4        1.0  0.9323464186366442  0.41872489241979305  0.06123242326616629  1.0000
  O   O5        1.0  0.2854650247089581  0.4889492089917798  0.18782007048273372  1.0000
  O   O6        1.0  0.635885288990653  0.28684824254913444  0.5971249105186006  1.0000
  O   O7        1.0  0.693472737690263  0.9032238558894283  0.8922656967589037  1.0000
  O   O8        1.0  0.260525722828963  0.6500369400337348  0.6511475855279829  1.0000
  O   O9        1.0  0.11445934423062298  0.11965796563282383  0.6354890845180052  1.0000
  O   O10       1.0  0.5049346772287324  0.4694492878841532  0.8997553033114861  1.0000
  O   O11       1.0  0.8954761643786069  0.1441482547360776  0.4078193063826222  1.0000
  O   O12       1.0  0.3238627000332109  0.9048506322309597  0.9868875781436065  1.0000
data_image126
_chemical_formula_structural       Cd4S4O12
_chemical_formula_sum              "Cd4 S4 O12"
_cell_length_a       9.025715
_cell_length_b       4.573479000000001
_cell_length_c       7.283293351582442
_cell_angle_alpha    88.92985652425466
_cell_angle_beta     90.0
_cell_angle_gamma    90.0

_space_group_name_H-M_alt    "P 1"
_space_group_IT_number       1

loop_
  _space_group_symop_operation_xyz
  'x, y, z'

loop_
  _atom_site_type_symbol
  _atom_site_label
  _atom_site_symmetry_multiplicity
  _atom_site_fract_x
  _atom_site_fract_y
  _atom_site_fract_z
  _atom_site_occupancy
  Cd  Cd1       1.0  0.6551914396527231  0.6887904073203719  0.5208447905471275  1.0000
  Cd  Cd2       1.0  0.11597374795326772  0.4368451735390639  0.002509002298829979  1.0000
  Cd  Cd3       1.0  0.41790618364630855  0.2903256631587354  0.6502595999189823  1.0000
  Cd  Cd4       1.0  0.8497560859557708  0.18299464343371685  0.7584484497473475  1.0000
  S   S1        1.0  0.30742135635195794  0.8881774982172147  0.20045937855599866  1.0000
  S   S2        1.0  0.8278177121822827  0.1976918119985036  0.25689551610778477  1.0000
  S   S3        1.0  0.6098720416393252  0.6463205618014749  0.005121648050731675  1.0000
  S   S4        1.0  0.11035937419586395  0.5450208058402898  0.532558796116806  1.0000
  O   O1        1.0  0.8232146970145142  0.5233313699741194  0.28459740066302436  1.0000
  O   O2        1.0  0.4629902720383286  0.9517871793362201  0.2755720785473812  1.0000
  O   O3        1.0  0.9842742347781106  0.5932804890192355  0.7201900759632595  1.0000
  O   O4        1.0  0.9000717145285301  0.18752427575409336  0.03303423888625012  1.0000
  O   O5        1.0  0.306953858444115  0.5701179398576733  0.1833617075885401  1.0000
  O   O6        1.0  0.6432694527141355  0.19811869294098527  0.588860213456406  1.0000
  O   O7        1.0  0.7275181910035188  0.7483557905181935  0.8851299492063862  1.0000
  O   O8        1.0  0.3033579548667795  0.6907963834064988  0.5333499321639902  1.0000
  O   O9        1.0  0.16906410981554454  0.24597505961927613  0.5872180572021526  1.0000
  O   O10       1.0  0.5449955512697762  0.3652815448415221  0.9144727419525642  1.0000
  O   O11       1.0  0.905243596435107  0.037061845599138964  0.40732864122334145  1.0000
  O   O12       1.0  0.22946871171342226  0.01029389760959973  0.043314776368408844  1.0000
data_image127
_chemical_formula_structural       Cd4S4O12
_chemical_formula_sum              "Cd4 S4 O12"
_cell_length_a       9.025715
_cell_length_b       4.573479000000001
_cell_length_c       7.283293351582442
_cell_angle_alpha    88.92985652425466
_cell_angle_beta     90.0
_cell_angle_gamma    90.0

_space_group_name_H-M_alt    "P 1"
_space_group_IT_number       1

loop_
  _space_group_symop_operation_xyz
  'x, y, z'

loop_
  _atom_site_type_symbol
  _atom_site_label
  _atom_site_symmetry_multiplicity
  _atom_site_fract_x
  _atom_site_fract_y
  _atom_site_fract_z
  _atom_site_occupancy
  Cd  Cd1       1.0  0.6519907812535225  0.663143111084431  0.46563547548092366  1.0000
  Cd  Cd2       1.0  0.08267072409255384  0.5266932524958097  0.048155929072968624  1.0000
  Cd  Cd3       1.0  0.43240206850353935  0.24990033837807246  0.6623761732249195  1.0000
  Cd  Cd4       1.0  0.8603916212871251  0.1922936436077276  0.7339916676543141  1.0000
  S   S1        1.0  0.29426990135888814  0.004103784764197274  0.2133385590260416  1.0000
  S   S2        1.0  0.8164604456226426  0.054793933468563136  0.2592424993400215  1.0000
  S   S3        1.0  0.6056852412597669  0.6458723789325844  0.936952120047834  1.0000
  S   S4        1.0  0.1547783751741798  0.5409026927441707  0.6139430334963405  1.0000
  O   O1        1.0  0.8482093514951425  0.40038646123122673  0.27272363601689714  1.0000
  O   O2        1.0  0.4553932929735727  0.9854033316189463  0.19827596180061385  1.0000
  O   O3        1.0  0.02646678416648453  0.6263882522284041  0.7511439304473612  1.0000
  O   O4        1.0  0.9122339125210754  0.08766148276680874  0.007064880104668436  1.0000
  O   O5        1.0  0.23808318627677957  0.709333290383407  0.26868654343671944  1.0000
  O   O6        1.0  0.6437198804161961  0.1783086381423442  0.5305374516866856  1.0000
  O   O7        1.0  0.7268868663661405  0.6263678324948382  0.7665145284070967  1.0000
  O   O8        1.0  0.31176931398431273  0.721762490472386  0.6677926214638773  1.0000
  O   O9        1.0  0.190832440017773  0.2429626627808522  0.7158458699328222  1.0000
  O   O10       1.0  0.532695684906949  0.34059247920379665  0.9475644740475712  1.0000
  O   O11       1.0  0.914085191241495  0.9396115530708358  0.41919125124551604  1.0000
  O   O12       1.0  0.24845399457702486  0.09833579381622483  0.019264753204699486  1.0000
data_image128
_chemical_formula_structural       Cd4S4O12
_chemical_formula_sum              "Cd4 S4 O12"
_cell_length_a       9.025715
_cell_length_b       4.573479000000001
_cell_length_c       7.283293351582442
_cell_angle_alpha    88.92985652425466
_cell_angle_beta     90.0
_cell_angle_gamma    90.0

_space_group_name_H-M_alt    "P 1"
_space_group_IT_number       1

loop_
  _space_group_symop_operation_xyz
  'x, y, z'

loop_
  _atom_site_type_symbol
  _atom_site_label
  _atom_site_symmetry_multiplicity
  _atom_site_fract_x
  _atom_site_fract_y
  _atom_site_fract_z
  _atom_site_occupancy
  Cd  Cd1       1.0  0.6445896526633  0.651864435027078  0.42255290828411496  1.0000
  Cd  Cd2       1.0  0.05381310462862634  0.5921796537320564  0.044603021094637964  1.0000
  Cd  Cd3       1.0  0.4186949775757051  0.10271744714511558  0.690036868322217  1.0000
  Cd  Cd4       1.0  0.8528343850773562  0.13833225822610284  0.6952630334155043  1.0000
  S   S1        1.0  0.3392432118882887  0.01900205694153818  0.25094645466091947  1.0000
  S   S2        1.0  0.830539003449891  0.13054191265552983  0.20240263715577317  1.0000
  S   S3        1.0  0.6626616953767251  0.6635045331769733  0.9812939590689616  1.0000
  S   S4        1.0  0.13794257042355373  0.7206156912544783  0.6337488620935112  1.0000
  O   O1        1.0  0.8907116061890709  0.3949883458434117  0.2748948269051907  1.0000
  O   O2        1.0  0.5078713547543579  0.03562801169834724  0.27634519558690757  1.0000
  O   O3        1.0  0.0631964111176718  0.8535429405545469  0.8121429831323285  1.0000
  O   O4        1.0  0.9440761569759402  0.10752148149556895  0.02008678606612091  1.0000
  O   O5        1.0  0.289333580020009  0.7070096831494351  0.25778195116975744  1.0000
  O   O6        1.0  0.6492146221461909  0.20065624202345644  0.5542539648775355  1.0000
  O   O7        1.0  0.7872199587321012  0.5201604291282308  0.876885768982653  1.0000
  O   O8        1.0  0.3000948135013515  0.6818639798454289  0.7015728780619478  1.0000
  O   O9        1.0  0.08896881860190309  0.39114314834145447  0.6373210558858202  1.0000
  O   O10       1.0  0.5647082033239833  0.4402590253913865  0.05095296077948919  1.0000
  O   O11       1.0  0.8770553089470654  0.8847122694040177  0.33356784326185784  1.0000
  O   O12       1.0  0.29010064878397895  0.2075231328742717  0.0845410160112175  1.0000
data_image129
_chemical_formula_structural       Cd4S4O12
_chemical_formula_sum              "Cd4 S4 O12"
_cell_length_a       9.025715
_cell_length_b       4.573479000000001
_cell_length_c       7.283293351582442
_cell_angle_alpha    88.92985652425466
_cell_angle_beta     90.0
_cell_angle_gamma    90.0

_space_group_name_H-M_alt    "P 1"
_space_group_IT_number       1

loop_
  _space_group_symop_operation_xyz
  'x, y, z'

loop_
  _atom_site_type_symbol
  _atom_site_label
  _atom_site_symmetry_multiplicity
  _atom_site_fract_x
  _atom_site_fract_y
  _atom_site_fract_z
  _atom_site_occupancy
  Cd  Cd1       1.0  0.6198245732713643  0.6979072457155958  0.4449824462453144  1.0000
  Cd  Cd2       1.0  0.04565757517516081  0.6666553825287309  0.04966019161052404  1.0000
  Cd  Cd3       1.0  0.46209005587269214  0.044727146354142724  0.6922450486850734  1.0000
  Cd  Cd4       1.0  0.8651600650941641  0.2271267717153851  0.6712482370149111  1.0000
  S   S1        1.0  0.29115271595646103  0.9606000572271277  0.25106887795171046  1.0000
  S   S2        1.0  0.8514086746571686  0.17462710866519407  0.23992986848678632  1.0000
  S   S3        1.0  0.632947404374688  0.6262479365510183  0.9149239600595618  1.0000
  S   S4        1.0  0.16573937498819413  0.5396189994618804  0.6349052052546938  1.0000
  O   O1        1.0  0.9947038552843375  0.38083486757641766  0.28499248569922736  1.0000
  O   O2        1.0  0.43549023790041724  0.8928734457389235  0.3609659557824616  1.0000
  O   O3        1.0  0.04984044538575769  0.7489409664730055  0.7054404842142356  1.0000
  O   O4        1.0  0.8697708852547216  0.06332691110428734  0.043293628189818634  1.0000
  O   O5        1.0  0.2172520844255805  0.6596093803794318  0.2622882506801701  1.0000
  O   O6        1.0  0.6397273191038593  0.2208309704244782  0.5403474612938556  1.0000
  O   O7        1.0  0.7777266377754251  0.6130925988008504  0.7910968565031986  1.0000
  O   O8        1.0  0.29733064390759  0.6873978123740874  0.677242381740088  1.0000
  O   O9        1.0  0.147306873747596  0.2857020897933381  0.77701256989792  1.0000
  O   O10       1.0  0.5711372428552917  0.39215028115320694  0.05124559785076932  1.0000
  O   O11       1.0  0.8400205453964321  0.907186402904143  0.3630182886778493  1.0000
  O   O12       1.0  0.31107647112296755  0.9896290548605068  0.038875604395840375  1.0000
data_image130
_chemical_formula_structural       Cd4S4O12
_chemical_formula_sum              "Cd4 S4 O12"
_cell_length_a       9.025715
_cell_length_b       4.573479000000001
_cell_length_c       7.283293351582442
_cell_angle_alpha    88.92985652425466
_cell_angle_beta     90.0
_cell_angle_gamma    90.0

_space_group_name_H-M_alt    "P 1"
_space_group_IT_number       1

loop_
  _space_group_symop_operation_xyz
  'x, y, z'

loop_
  _atom_site_type_symbol
  _atom_site_label
  _atom_site_symmetry_multiplicity
  _atom_site_fract_x
  _atom_site_fract_y
  _atom_site_fract_z
  _atom_site_occupancy
  Cd  Cd1       1.0  0.6090442664778625  0.7497651777531475  0.4507482112573298  1.0000
  Cd  Cd2       1.0  0.055767988695134545  0.618349846777632  0.04695325262670309  1.0000
  Cd  Cd3       1.0  0.46083313300050655  0.04491448754658787  0.6914569168813617  1.0000
  Cd  Cd4       1.0  0.8597940473971857  0.2497392476244218  0.6404430479166935  1.0000
  S   S1        1.0  0.2871305501233167  0.9963149067512103  0.21784315895039935  1.0000
  S   S2        1.0  0.8370908872449229  0.13849379761619696  0.22401251673171552  1.0000
  S   S3        1.0  0.5929818126734411  0.683817919735382  0.9644597599853485  1.0000
  S   S4        1.0  0.20384275795983742  0.36046428153934995  0.6909909583045535  1.0000
  O   O1        1.0  0.9454128363685396  0.3642621040836856  0.3177166783157682  1.0000
  O   O2        1.0  0.4317366313155591  0.03785800899025757  0.3402932349664574  1.0000
  O   O3        1.0  0.044127208860701705  0.46281613396513843  0.7269791742448057  1.0000
  O   O4        1.0  0.936941937174907  0.1581905123798617  0.01847631358517665  1.0000
  O   O5        1.0  0.1995352284134561  0.7977030683704464  0.3477538480558382  1.0000
  O   O6        1.0  0.6564494037226116  0.301259686534998  0.5033626686506258  1.0000
  O   O7        1.0  0.7144579780024543  0.7818337855298313  0.8394578423931588  1.0000
  O   O8        1.0  0.31099904838972425  0.6507615502122204  0.6657528287278935  1.0000
  O   O9        1.0  0.24591133640987728  0.2520503823206446  0.8760690577905447  1.0000
  O   O10       1.0  0.5638098541637181  0.37714219313275144  0.9427165085103527  1.0000
  O   O11       1.0  0.8663403275542675  0.8897942338710987  0.3402970629642723  1.0000
  O   O12       1.0  0.33401589180013247  0.8193180163039837  0.06047154202442722  1.0000
data_image131
_chemical_formula_structural       Cd4S4O12
_chemical_formula_sum              "Cd4 S4 O12"
_cell_length_a       9.025715
_cell_length_b       4.573479000000001
_cell_length_c       7.283293351582442
_cell_angle_alpha    88.92985652425466
_cell_angle_beta     90.0
_cell_angle_gamma    90.0

_space_group_name_H-M_alt    "P 1"
_space_group_IT_number       1

loop_
  _space_group_symop_operation_xyz
  'x, y, z'

loop_
  _atom_site_type_symbol
  _atom_site_label
  _atom_site_symmetry_multiplicity
  _atom_site_fract_x
  _atom_site_fract_y
  _atom_site_fract_z
  _atom_site_occupancy
  Cd  Cd1       1.0  0.6192314265545699  0.7484778483491473  0.4102288879401376  1.0000
  Cd  Cd2       1.0  0.1075269828262916  0.5449388683194097  0.0718904074320411  1.0000
  Cd  Cd3       1.0  0.43120449542457684  0.07009540855705124  0.7158918301584054  1.0000
  Cd  Cd4       1.0  0.8521251326644874  0.2413323404610177  0.6325539809910595  1.0000
  S   S1        1.0  0.325308126726648  0.9791062122561436  0.238135089615653  1.0000
  S   S2        1.0  0.829096657870918  0.2738494060254737  0.18554173914286318  1.0000
  S   S3        1.0  0.6343085295616634  0.4840967936555569  0.9855201769818641  1.0000
  S   S4        1.0  0.1708812506256434  0.5247799600462553  0.6812721565065656  1.0000
  O   O1        1.0  0.9635605184789438  0.37136720985473515  0.32781297396910586  1.0000
  O   O2        1.0  0.42826891592836186  0.017238842260223944  0.3839627952093514  1.0000
  O   O3        1.0  0.05866331365994299  0.7140575517767813  0.770812999971084  1.0000
  O   O4        1.0  0.8905145904529722  0.26659513934652623  0.9853133144759726  1.0000
  O   O5        1.0  0.17523546646373395  0.06359810517021125  0.2857052727092631  1.0000
  O   O6        1.0  0.6247631463322767  0.28888572163157744  0.5528844269114469  1.0000
  O   O7        1.0  0.5807035490884646  0.6858601132994028  0.7939530445944785  1.0000
  O   O8        1.0  0.3120813905978168  0.7135376138140151  0.6213940788282603  1.0000
  O   O9        1.0  0.2517386683647025  0.3387848922698159  0.8475873860950485  1.0000
  O   O10       1.0  0.5911073637481946  0.16193299712933573  0.9845766280299764  1.0000
  O   O11       1.0  0.8117948446772932  0.8650276042721878  0.24668855695536465  1.0000
  O   O12       1.0  0.31126737561758716  0.6467462222383737  0.1721884897914818  1.0000
data_image132
_chemical_formula_structural       Cd4S4O12
_chemical_formula_sum              "Cd4 S4 O12"
_cell_length_a       9.025715
_cell_length_b       4.573479000000001
_cell_length_c       7.283293351582442
_cell_angle_alpha    88.92985652425466
_cell_angle_beta     90.0
_cell_angle_gamma    90.0

_space_group_name_H-M_alt    "P 1"
_space_group_IT_number       1

loop_
  _space_group_symop_operation_xyz
  'x, y, z'

loop_
  _atom_site_type_symbol
  _atom_site_label
  _atom_site_symmetry_multiplicity
  _atom_site_fract_x
  _atom_site_fract_y
  _atom_site_fract_z
  _atom_site_occupancy
  Cd  Cd1       1.0  0.6740379329544701  0.7966587136051431  0.4225510117553183  1.0000
  Cd  Cd2       1.0  0.12581850196195654  0.4969949304236832  0.12123480395723052  1.0000
  Cd  Cd3       1.0  0.3954709898961446  0.11661570309044234  0.6912971089091832  1.0000
  Cd  Cd4       1.0  0.8508372409192724  0.20579981578825435  0.6045573164397191  1.0000
  S   S1        1.0  0.3743353953202963  0.9137635993203934  0.21376080522803254  1.0000
  S   S2        1.0  0.8691776617204794  0.16069045481803926  0.1833447053128365  1.0000
  S   S3        1.0  0.5338334081945222  0.5409862263481902  0.008537690733943837  1.0000
  S   S4        1.0  0.11886247104272574  0.5529172739517905  0.6854666977545515  1.0000
  O   O1        1.0  0.9600323304045947  0.3173627941014744  0.3296866144707308  1.0000
  O   O2        1.0  0.4249659425254296  0.023040282898018384  0.4150465460173314  1.0000
  O   O3        1.0  0.9907352380442137  0.7580309451564421  0.7246041136807722  1.0000
  O   O4        1.0  0.9198766364650599  0.2850576162168379  0.9943285092777829  1.0000
  O   O5        1.0  0.22582743477597014  0.08046510991779976  0.1676219463840746  1.0000
  O   O6        1.0  0.6105861124447733  0.34822843040345  0.5558780338212644  1.0000
  O   O7        1.0  0.5552147850097842  0.7168583821576096  0.826338728110074  1.0000
  O   O8        1.0  0.23632624520181467  0.7478477955877209  0.632902025967118  1.0000
  O   O9        1.0  0.1833399345496809  0.2781099133936562  0.8244895969380109  1.0000
  O   O10       1.0  0.5214966528840439  0.23445939748153255  0.9581910006365079  1.0000
  O   O11       1.0  0.9216163735358383  0.8664411083401315  0.18951412645644233  1.0000
  O   O12       1.0  0.3224699959142222  0.593341286635156  0.2901094472032606  1.0000
data_image133
_chemical_formula_structural       Cd4S4O12
_chemical_formula_sum              "Cd4 S4 O12"
_cell_length_a       9.025715
_cell_length_b       4.573479000000001
_cell_length_c       7.283293351582442
_cell_angle_alpha    88.92985652425466
_cell_angle_beta     90.0
_cell_angle_gamma    90.0

_space_group_name_H-M_alt    "P 1"
_space_group_IT_number       1

loop_
  _space_group_symop_operation_xyz
  'x, y, z'

loop_
  _atom_site_type_symbol
  _atom_site_label
  _atom_site_symmetry_multiplicity
  _atom_site_fract_x
  _atom_site_fract_y
  _atom_site_fract_z
  _atom_site_occupancy
  Cd  Cd1       1.0  0.6586777844306936  0.7404475858444014  0.45971430235829874  1.0000
  Cd  Cd2       1.0  0.1256077042644585  0.47420959204712265  0.13634102060512412  1.0000
  Cd  Cd3       1.0  0.38974465110654083  0.22128078334920048  0.7153586391627212  1.0000
  Cd  Cd4       1.0  0.8742812347923177  0.28208114041248056  0.5967483152774425  1.0000
  S   S1        1.0  0.388500741180768  0.7669903111859626  0.2056410812719977  1.0000
  S   S2        1.0  0.8597852941482192  0.06609073899643243  0.20096450580166905  1.0000
  S   S3        1.0  0.5586362269668629  0.6026647935477238  0.9287358178003589  1.0000
  S   S4        1.0  0.11881890987185617  0.6342401705367504  0.6468857266648542  1.0000
  O   O1        1.0  0.009456642383544267  0.1585248987977829  0.31027853957439444  1.0000
  O   O2        1.0  0.4840463061161251  0.9426855920738945  0.3256278863151848  1.0000
  O   O3        1.0  0.9494530656525377  0.661924967301638  0.6935277955189314  1.0000
  O   O4        1.0  0.9070981810178483  0.12772709153794715  0.9906874162933239  1.0000
  O   O5        1.0  0.2528036493990443  0.9256181790522482  0.13400264705630524  1.0000
  O   O6        1.0  0.6542193741591594  0.2089766691258128  0.5413883852029509  1.0000
  O   O7        1.0  0.5086273474209276  0.7299319691978716  0.7399698263300566  1.0000
  O   O8        1.0  0.18887279712701832  0.8993792818866344  0.5766586564817747  1.0000
  O   O9        1.0  0.17472116995667109  0.5403232447320969  0.8305176458709368  1.0000
  O   O10       1.0  0.4439335039297685  0.34064414999267245  0.9845808405828826  1.0000
  O   O11       1.0  0.8652568630182238  0.6982263934431394  0.21458567498120187  1.0000
  O   O12       1.0  0.35712733279719877  0.47899257397098927  0.3118736743279879  1.0000
data_image134
_chemical_formula_structural       Cd4S4O12
_chemical_formula_sum              "Cd4 S4 O12"
_cell_length_a       9.025715
_cell_length_b       4.573479000000001
_cell_length_c       7.283293351582442
_cell_angle_alpha    88.92985652425466
_cell_angle_beta     90.0
_cell_angle_gamma    90.0

_space_group_name_H-M_alt    "P 1"
_space_group_IT_number       1

loop_
  _space_group_symop_operation_xyz
  'x, y, z'

loop_
  _atom_site_type_symbol
  _atom_site_label
  _atom_site_symmetry_multiplicity
  _atom_site_fract_x
  _atom_site_fract_y
  _atom_site_fract_z
  _atom_site_occupancy
  Cd  Cd1       1.0  0.694055394464183  0.7568753278178915  0.5367735039149809  1.0000
  Cd  Cd2       1.0  0.0767382126564662  0.47694442616880794  0.16270312906308348  1.0000
  Cd  Cd3       1.0  0.4089459320350548  0.1618521472161653  0.6438925504840327  1.0000
  Cd  Cd4       1.0  0.8687514825844194  0.25989472979809625  0.6130711858134213  1.0000
  S   S1        1.0  0.3854832564526382  0.7945005892803095  0.1803081169078889  1.0000
  S   S2        1.0  0.8547586829265683  0.9779380091146267  0.13711376877427978  1.0000
  S   S3        1.0  0.568891472656083  0.5206130758266903  0.9221619331158172  1.0000
  S   S4        1.0  0.1462634713313351  0.819970825343637  0.6037853035711399  1.0000
  O   O1        1.0  0.9319841609398792  0.17528546951922958  0.3081953332714203  1.0000
  O   O2        1.0  0.511645700459385  0.8763987815953905  0.28327528604829355  1.0000
  O   O3        1.0  0.9278471706253683  0.787338623505108  0.6037215974566907  1.0000
  O   O4        1.0  0.008530974159643545  0.9640748311247768  0.02223663666890685  1.0000
  O   O5        1.0  0.2869560207044788  0.053548419631243016  0.18845678463565793  1.0000
  O   O6        1.0  0.6421854450034127  0.2392656633461132  0.5758836003969858  1.0000
  O   O7        1.0  0.4425230912161026  0.7285863913121442  0.8238190801343742  1.0000
  O   O8        1.0  0.16466550012118453  0.14013064559067168  0.62461976256842  1.0000
  O   O9        1.0  0.1729322488807148  0.6850843207944816  0.7859524628463394  1.0000
  O   O10       1.0  0.5363345419173033  0.22980156959619058  0.9233533464663541  1.0000
  O   O11       1.0  0.8174250242292593  0.6247384264031967  0.18384897403991055  1.0000
  O   O12       1.0  0.2914064762501895  0.5578588991560263  0.271982631928728  1.0000
data_image135
_chemical_formula_structural       Cd4S4O12
_chemical_formula_sum              "Cd4 S4 O12"
_cell_length_a       9.025715
_cell_length_b       4.573479000000001
_cell_length_c       7.283293351582442
_cell_angle_alpha    88.92985652425466
_cell_angle_beta     90.0
_cell_angle_gamma    90.0

_space_group_name_H-M_alt    "P 1"
_space_group_IT_number       1

loop_
  _space_group_symop_operation_xyz
  'x, y, z'

loop_
  _atom_site_type_symbol
  _atom_site_label
  _atom_site_symmetry_multiplicity
  _atom_site_fract_x
  _atom_site_fract_y
  _atom_site_fract_z
  _atom_site_occupancy
  Cd  Cd1       1.0  0.6527485501548185  0.784013316916122  0.5077249743457091  1.0000
  Cd  Cd2       1.0  0.08203717024450086  0.4283013860694401  0.12132696061669668  1.0000
  Cd  Cd3       1.0  0.42458801552808373  0.14996029883970347  0.5882383211837353  1.0000
  Cd  Cd4       1.0  0.8954521299904904  0.2255716820348257  0.6509983178627334  1.0000
  S   S1        1.0  0.3517679423372301  0.931255246168503  0.17155221164687362  1.0000
  S   S2        1.0  0.8545068832326812  0.9961801644521664  0.1752534760110332  1.0000
  S   S3        1.0  0.5843945642329389  0.5919209358146384  0.9391671642935135  1.0000
  S   S4        1.0  0.10254004158135155  0.6492370415270798  0.6995942713774561  1.0000
  O   O1        1.0  0.9356077161826539  0.18542327754755544  0.30549237951629005  1.0000
  O   O2        1.0  0.49964083966378003  0.9645488690926172  0.30955764502214655  1.0000
  O   O3        1.0  0.9634553119852596  0.6987698421502386  0.6003313511436464  1.0000
  O   O4        1.0  0.9702714290509089  0.9234194770569236  0.042733584270027825  1.0000
  O   O5        1.0  0.3072192266244299  0.2479145761112067  0.15431190201071016  1.0000
  O   O6        1.0  0.662452975859873  0.3193809665073025  0.6056376604267131  1.0000
  O   O7        1.0  0.49577941395374947  0.7322814574076648  0.7634686430008607  1.0000
  O   O8        1.0  0.11622551643045109  0.9916846732603084  0.7254071528201048  1.0000
  O   O9        1.0  0.2003623133165795  0.5548537148578917  0.8983062085910216  1.0000
  O   O10       1.0  0.606386503370088  0.29145509915238343  0.9351717552847845  1.0000
  O   O11       1.0  0.791443415993253  0.7216107491163077  0.26219709216889187  1.0000
  O   O12       1.0  0.25330939400233515  0.7818371731971238  0.31942759232298445  1.0000
data_image136
_chemical_formula_structural       Cd4S4O12
_chemical_formula_sum              "Cd4 S4 O12"
_cell_length_a       9.025715
_cell_length_b       4.573479000000001
_cell_length_c       7.283293351582442
_cell_angle_alpha    88.92985652425466
_cell_angle_beta     90.0
_cell_angle_gamma    90.0

_space_group_name_H-M_alt    "P 1"
_space_group_IT_number       1

loop_
  _space_group_symop_operation_xyz
  'x, y, z'

loop_
  _atom_site_type_symbol
  _atom_site_label
  _atom_site_symmetry_multiplicity
  _atom_site_fract_x
  _atom_site_fract_y
  _atom_site_fract_z
  _atom_site_occupancy
  Cd  Cd1       1.0  0.6703520325061997  0.6559977960237406  0.5632739796578377  1.0000
  Cd  Cd2       1.0  0.09850276599850132  0.3825832821505768  0.11275181174433552  1.0000
  Cd  Cd3       1.0  0.42641091498242456  0.24142374675988645  0.5716113292720251  1.0000
  Cd  Cd4       1.0  0.9146280929208156  0.1562458638767259  0.6461277403669702  1.0000
  S   S1        1.0  0.3248454612984179  0.9860168718026213  0.15411906604929615  1.0000
  S   S2        1.0  0.7745605244346075  0.9997695948067135  0.22472146365545723  1.0000
  S   S3        1.0  0.5555836763501483  0.7543111225688437  0.9267187684790786  1.0000
  S   S4        1.0  0.2105369073935368  0.7741716939726637  0.6944261341011013  1.0000
  O   O1        1.0  0.9287452598772961  0.144400748841844  0.30096403498647617  1.0000
  O   O2        1.0  0.4336467623331625  0.843261111953937  0.3124850390021811  1.0000
  O   O3        1.0  0.8995949019318045  0.6284734672694536  0.7405891316572805  1.0000
  O   O4        1.0  0.8366253605945497  0.047794929570385225  0.029856380723076947  1.0000
  O   O5        1.0  0.3517202150076816  0.2937778236412545  0.17095977247307784  1.0000
  O   O6        1.0  0.665187602262824  0.17730806708954094  0.5062639340505399  1.0000
  O   O7        1.0  0.4835048926705014  0.824444911385897  0.7586001412040375  1.0000
  O   O8        1.0  0.18928459043929102  0.09085835078537596  0.6240784398572995  1.0000
  O   O9        1.0  0.14033296560423114  0.704850966567889  0.8784510951988626  1.0000
  O   O10       1.0  0.6068718986372389  0.45313052694301703  0.946115346162203  1.0000
  O   O11       1.0  0.7868816401769745  0.6779450049676288  0.25205272650574334  1.0000
  O   O12       1.0  0.15132583031304642  0.8930123137140651  0.19457447412680215  1.0000
data_image137
_chemical_formula_structural       Cd4S4O12
_chemical_formula_sum              "Cd4 S4 O12"
_cell_length_a       9.025715
_cell_length_b       4.573479000000001
_cell_length_c       7.283293351582442
_cell_angle_alpha    88.92985652425466
_cell_angle_beta     90.0
_cell_angle_gamma    90.0

_space_group_name_H-M_alt    "P 1"
_space_group_IT_number       1

loop_
  _space_group_symop_operation_xyz
  'x, y, z'

loop_
  _atom_site_type_symbol
  _atom_site_label
  _atom_site_symmetry_multiplicity
  _atom_site_fract_x
  _atom_site_fract_y
  _atom_site_fract_z
  _atom_site_occupancy
  Cd  Cd1       1.0  0.6680471191678213  0.6375725984143956  0.5967207020356351  1.0000
  Cd  Cd2       1.0  0.1143226285399879  0.42161006767418874  0.12625092831317766  1.0000
  Cd  Cd3       1.0  0.40825142917926543  0.2394020922118299  0.6121816590620304  1.0000
  Cd  Cd4       1.0  0.9185377329849377  0.10999828755594132  0.615149633568813  1.0000
  S   S1        1.0  0.36628311398790947  0.9385619542062391  0.21271821949417863  1.0000
  S   S2        1.0  0.8019416635485448  0.17021783711425212  0.19735386827262316  1.0000
  S   S3        1.0  0.5502292252806767  0.7125025439817405  0.9158031531037022  1.0000
  S   S4        1.0  0.1706093060074838  0.6338770794829975  0.6000458272254651  1.0000
  O   O1        1.0  0.9589789923367987  0.26472980331324253  0.2911487524158685  1.0000
  O   O2        1.0  0.401450284402366  0.7823349102519647  0.4136826700569246  1.0000
  O   O3        1.0  0.9918128593509822  0.609584357703612  0.5058336309260315  1.0000
  O   O4        1.0  0.7632185532623427  0.38728086896494984  0.06742488125726287  1.0000
  O   O5        1.0  0.3627600938112045  0.25431423123636443  0.26213135838646684  1.0000
  O   O6        1.0  0.733019140831901  0.28251294581172315  0.4437227399154036  1.0000
  O   O7        1.0  0.4426497844808505  0.8585074262995216  0.7609409378100108  1.0000
  O   O8        1.0  0.17535884103141042  0.990177109603957  0.631871565145244  1.0000
  O   O9        1.0  0.15185474144116817  0.49271902864915407  0.7972745999846305  1.0000
  O   O10       1.0  0.49992402911776695  0.4265455876940085  0.980693832514542  1.0000
  O   O11       1.0  0.7532657468256396  0.8799506258620374  0.20277237664265121  1.0000
  O   O12       1.0  0.20336738636860488  0.8716436290961036  0.12027365832515921  1.0000
data_image138
_chemical_formula_structural       Cd4S4O12
_chemical_formula_sum              "Cd4 S4 O12"
_cell_length_a       9.025715
_cell_length_b       4.573479000000001
_cell_length_c       7.283293351582442
_cell_angle_alpha    88.92985652425466
_cell_angle_beta     90.0
_cell_angle_gamma    90.0

_space_group_name_H-M_alt    "P 1"
_space_group_IT_number       1

loop_
  _space_group_symop_operation_xyz
  'x, y, z'

loop_
  _atom_site_type_symbol
  _atom_site_label
  _atom_site_symmetry_multiplicity
  _atom_site_fract_x
  _atom_site_fract_y
  _atom_site_fract_z
  _atom_site_occupancy
  Cd  Cd1       1.0  0.6952637378499994  0.6850648402745091  0.589549130591849  1.0000
  Cd  Cd2       1.0  0.16635175653048043  0.466028284245986  0.09644680919628064  1.0000
  Cd  Cd3       1.0  0.37608666652623857  0.1976100779466822  0.652175781581069  1.0000
  Cd  Cd4       1.0  0.9032952857191854  0.1417829774253061  0.5871708530652722  1.0000
  S   S1        1.0  0.42582618231117564  0.9933691706714856  0.2361611737619831  1.0000
  S   S2        1.0  0.766343300754784  0.1275718452883709  0.17489554503524635  1.0000
  S   S3        1.0  0.5160804122725543  0.6337730868707896  0.9396866345065029  1.0000
  S   S4        1.0  0.1509928449945417  0.5455706041923656  0.642631716608292  1.0000
  O   O1        1.0  0.9374567948827467  0.1458865786823292  0.2589797995372605  1.0000
  O   O2        1.0  0.4649468803784557  0.9478104495945279  0.43887677611716086  1.0000
  O   O3        1.0  0.9124841676471117  0.7275347564180978  0.7144042346175984  1.0000
  O   O4        1.0  0.7722542675824363  0.2673594245171296  0.9920204780001003  1.0000
  O   O5        1.0  0.33747974294470695  0.3067970444879953  0.27370602642952097  1.0000
  O   O6        1.0  0.68783208513912  0.2558969579374538  0.355213653916028  1.0000
  O   O7        1.0  0.5012659603504319  0.8127048002908059  0.7831021579301172  1.0000
  O   O8        1.0  0.18194283027477165  0.8625916498896404  0.664016977635538  1.0000
  O   O9        1.0  0.07409685022964485  0.3580391778381401  0.8160481289982154  1.0000
  O   O10       1.0  0.3976581548693325  0.4162580076643667  0.9259624364207599  1.0000
  O   O11       1.0  0.7204875056505686  0.8390079788370527  0.17140155960517728  1.0000
  O   O12       1.0  0.2890857781246779  0.9009306942228533  0.12004566335989152  1.0000
data_image139
_chemical_formula_structural       Cd4S4O12
_chemical_formula_sum              "Cd4 S4 O12"
_cell_length_a       9.025715
_cell_length_b       4.573479000000001
_cell_length_c       7.283293351582442
_cell_angle_alpha    88.92985652425466
_cell_angle_beta     90.0
_cell_angle_gamma    90.0

_space_group_name_H-M_alt    "P 1"
_space_group_IT_number       1

loop_
  _space_group_symop_operation_xyz
  'x, y, z'

loop_
  _atom_site_type_symbol
  _atom_site_label
  _atom_site_symmetry_multiplicity
  _atom_site_fract_x
  _atom_site_fract_y
  _atom_site_fract_z
  _atom_site_occupancy
  Cd  Cd1       1.0  0.653365566237535  0.675990519207123  0.5535887741791891  1.0000
  Cd  Cd2       1.0  0.14616532514407207  0.4385704903793129  0.1367846859713485  1.0000
  Cd  Cd3       1.0  0.37674661262701903  0.2028442932099249  0.6199744646109089  1.0000
  Cd  Cd4       1.0  0.8786205913020871  0.18311608178496752  0.5693469357997649  1.0000
  S   S1        1.0  0.41522581891584115  0.06418487505394123  0.2533539481692299  1.0000
  S   S2        1.0  0.8714197935930128  0.07133994365194564  0.18306340717754302  1.0000
  S   S3        1.0  0.5380169738780742  0.5155392399911818  0.9532449643838498  1.0000
  S   S4        1.0  0.07820938075493888  0.6425536840380306  0.6535541356038399  1.0000
  O   O1        1.0  0.01976570657075971  0.9866375429793375  0.25551084797510876  1.0000
  O   O2        1.0  0.4750166578099315  0.9125033909770304  0.4488720160791542  1.0000
  O   O3        1.0  0.9011863209099885  0.7219804887232207  0.6905126942777773  1.0000
  O   O4        1.0  0.8537867456674252  0.14008766552092977  0.005636284850295548  1.0000
  O   O5        1.0  0.44455071148932096  0.37513785868120664  0.34557768969219976  1.0000
  O   O6        1.0  0.8318676451099686  0.40527357242562057  0.2695494314961384  1.0000
  O   O7        1.0  0.5995547327624297  0.8042985070496078  0.8373050867120128  1.0000
  O   O8        1.0  0.16478131158721232  0.867136191783804  0.7019434726975677  1.0000
  O   O9        1.0  0.09383196771060875  0.3401823110420773  0.7831665864087907  1.0000
  O   O10       1.0  0.36990999401087865  0.4934825681918267  0.8932281354663621  1.0000
  O   O11       1.0  0.7664819640763233  0.8438173654437611  0.2652069393652068  1.0000
  O   O12       1.0  0.27627796393751697  0.8784993298563821  0.24985147936489177  1.0000
data_image140
_chemical_formula_structural       Cd4S4O12
_chemical_formula_sum              "Cd4 S4 O12"
_cell_length_a       9.025715
_cell_length_b       4.573479000000001
_cell_length_c       7.283293351582442
_cell_angle_alpha    88.92985652425466
_cell_angle_beta     90.0
_cell_angle_gamma    90.0

_space_group_name_H-M_alt    "P 1"
_space_group_IT_number       1

loop_
  _space_group_symop_operation_xyz
  'x, y, z'

loop_
  _atom_site_type_symbol
  _atom_site_label
  _atom_site_symmetry_multiplicity
  _atom_site_fract_x
  _atom_site_fract_y
  _atom_site_fract_z
  _atom_site_occupancy
  Cd  Cd1       1.0  0.669667480741112  0.6230397775633619  0.5161366649158976  1.0000
  Cd  Cd2       1.0  0.1482252492545617  0.4606725656354729  0.13253058894076816  1.0000
  Cd  Cd3       1.0  0.37388931486265425  0.257966700256589  0.6801421563170348  1.0000
  Cd  Cd4       1.0  0.875451838477339  0.09304488691425994  0.6432469819736341  1.0000
  S   S1        1.0  0.44025860304304537  0.1399930836683149  0.2517811244627361  1.0000
  S   S2        1.0  0.8367822573319779  0.04772474001270171  0.13508210531490072  1.0000
  S   S3        1.0  0.5409654943239197  0.6337069851863748  0.9489419688744184  1.0000
  S   S4        1.0  0.12887160198716474  0.5645223345852963  0.6231810971794068  1.0000
  O   O1        1.0  0.005054096087781845  0.9523171390872402  0.2041816896782673  1.0000
  O   O2        1.0  0.43272290672983643  0.9463851301406212  0.4333435405664393  1.0000
  O   O3        1.0  0.9392066350142657  0.5206028385062411  0.6024706743491575  1.0000
  O   O4        1.0  0.8462805020234853  0.13919355048068538  0.9412424830441819  1.0000
  O   O5        1.0  0.3963374649386292  0.44033748014734075  0.32769946546232565  1.0000
  O   O6        1.0  0.7982994878149507  0.31956143661678993  0.26617703178678775  1.0000
  O   O7        1.0  0.5453010510390334  0.9101393129015513  0.8202752812284357  1.0000
  O   O8        1.0  0.14028118281123048  0.8718234823034213  0.5537296559939535  1.0000
  O   O9        1.0  0.14755986889644457  0.48647700569785024  0.8223654574870151  1.0000
  O   O10       1.0  0.3764770711013696  0.5601127954539857  0.9854298189291127  1.0000
  O   O11       1.0  0.730200593704923  0.8380092285785121  0.1914465522178819  1.0000
  O   O12       1.0  0.2699885730082821  0.04833137263610707  0.12658350852541328  1.0000
data_image141
_chemical_formula_structural       Cd4S4O12
_chemical_formula_sum              "Cd4 S4 O12"
_cell_length_a       9.025715
_cell_length_b       4.573479000000001
_cell_length_c       7.283293351582442
_cell_angle_alpha    88.92985652425466
_cell_angle_beta     90.0
_cell_angle_gamma    90.0

_space_group_name_H-M_alt    "P 1"
_space_group_IT_number       1

loop_
  _space_group_symop_operation_xyz
  'x, y, z'

loop_
  _atom_site_type_symbol
  _atom_site_label
  _atom_site_symmetry_multiplicity
  _atom_site_fract_x
  _atom_site_fract_y
  _atom_site_fract_z
  _atom_site_occupancy
  Cd  Cd1       1.0  0.6579253108004969  0.5827614044687367  0.4999816987521034  1.0000
  Cd  Cd2       1.0  0.13614257793752868  0.5331285772259098  0.11936410528982291  1.0000
  Cd  Cd3       1.0  0.400626975370025  0.19077910938180226  0.6559095903658555  1.0000
  Cd  Cd4       1.0  0.8498978424787662  0.9968431662771521  0.6663501514238516  1.0000
  S   S1        1.0  0.4157145537888656  0.17263488445236572  0.2631604616549288  1.0000
  S   S2        1.0  0.8867151144327987  0.04387590008476505  0.16983050160585758  1.0000
  S   S3        1.0  0.5049368689579884  0.8510431229009201  0.018379442491883502  1.0000
  S   S4        1.0  0.10138591022094978  0.6632796139898662  0.5643151948510956  1.0000
  O   O1        1.0  0.9856394867201417  0.8771711924881023  0.04833503650044286  1.0000
  O   O2        1.0  0.4576267484178762  0.8973832530831329  0.37916161511160584  1.0000
  O   O3        1.0  0.9719896439441578  0.5280813337571513  0.6589614191795787  1.0000
  O   O4        1.0  0.8003041910928663  0.1921116688735871  0.03419688422628453  1.0000
  O   O5        1.0  0.40631824720268  0.43172846604031734  0.42020604815194323  1.0000
  O   O6        1.0  0.9412306204442211  0.21915175554818944  0.3077013346174147  1.0000
  O   O7        1.0  0.5552266397827007  0.9903381684726937  0.8266210434242293  1.0000
  O   O8        1.0  0.10487713573764013  0.9499798208448832  0.6729990353632217  1.0000
  O   O9        1.0  0.23359687792400408  0.49180330812688156  0.6430358544887084  1.0000
  O   O10       1.0  0.35213801967870606  0.7408899640734499  0.9463738052620273  1.0000
  O   O11       1.0  0.7791130471607023  0.838311326756502  0.2466725135315597  1.0000
  O   O12       1.0  0.26875860021291514  0.10314254898625382  0.1961363514252548  1.0000
data_image142
_chemical_formula_structural       Cd4S4O12
_chemical_formula_sum              "Cd4 S4 O12"
_cell_length_a       9.025715
_cell_length_b       4.573479000000001
_cell_length_c       7.283293351582442
_cell_angle_alpha    88.92985652425466
_cell_angle_beta     90.0
_cell_angle_gamma    90.0

_space_group_name_H-M_alt    "P 1"
_space_group_IT_number       1

loop_
  _space_group_symop_operation_xyz
  'x, y, z'

loop_
  _atom_site_type_symbol
  _atom_site_label
  _atom_site_symmetry_multiplicity
  _atom_site_fract_x
  _atom_site_fract_y
  _atom_site_fract_z
  _atom_site_occupancy
  Cd  Cd1       1.0  0.6427020928964526  0.5483951352285779  0.5088555608366059  1.0000
  Cd  Cd2       1.0  0.18845563056712114  0.5764238186184049  0.07306400591424067  1.0000
  Cd  Cd3       1.0  0.33532784270242777  0.001240956780081631  0.6756902503971292  1.0000
  Cd  Cd4       1.0  0.8060267398107736  0.12565215030239818  0.7155955144016146  1.0000
  S   S1        1.0  0.4683155609825977  0.2646417907132619  0.20925596979269862  1.0000
  S   S2        1.0  0.8864114179126639  0.13048943024367843  0.1649950375828735  1.0000
  S   S3        1.0  0.5971877758890616  0.7296520383925509  0.9749943169296711  1.0000
  S   S4        1.0  0.07434224426609748  0.5592534635164119  0.6276566616702132  1.0000
  O   O1        1.0  0.9706185743988195  0.9213472824216972  0.030234771859735086  1.0000
  O   O2        1.0  0.5109038298598708  0.16299013799052564  0.4225919069671023  1.0000
  O   O3        1.0  0.9422662474363844  0.5025693015089364  0.7616299026638123  1.0000
  O   O4        1.0  0.756211227132919  0.28424071496105974  0.08258187158235519  1.0000
  O   O5        1.0  0.4125132057920879  0.5636989930174574  0.2551952169734722  1.0000
  O   O6        1.0  0.0003792365911334417  0.3247122847823407  0.2193260206046937  1.0000
  O   O7        1.0  0.6013824804774395  0.9272987108986872  0.6871641758791065  1.0000
  O   O8        1.0  0.10523654488145984  0.8926745928351159  0.6110572229400587  1.0000
  O   O9        1.0  0.21327137440624977  0.4873635182377717  0.7902231398569699  1.0000
  O   O10       1.0  0.44469458846252446  0.6257043697891675  0.928638883918676  1.0000
  O   O11       1.0  0.8506831675999014  0.9278941172599091  0.31463723628130885  1.0000
  O   O12       1.0  0.3238943728220489  0.09051743076713398  0.14109734737452131  1.0000
data_image143
_chemical_formula_structural       Cd4S4O12
_chemical_formula_sum              "Cd4 S4 O12"
_cell_length_a       9.025715
_cell_length_b       4.573479000000001
_cell_length_c       7.283293351582442
_cell_angle_alpha    88.92985652425466
_cell_angle_beta     90.0
_cell_angle_gamma    90.0

_space_group_name_H-M_alt    "P 1"
_space_group_IT_number       1

loop_
  _space_group_symop_operation_xyz
  'x, y, z'

loop_
  _atom_site_type_symbol
  _atom_site_label
  _atom_site_symmetry_multiplicity
  _atom_site_fract_x
  _atom_site_fract_y
  _atom_site_fract_z
  _atom_site_occupancy
  Cd  Cd1       1.0  0.6617241303055937  0.6013476876990715  0.4644163870012332  1.0000
  Cd  Cd2       1.0  0.1852393931553045  0.6511842140422238  0.08753430702145072  1.0000
  Cd  Cd3       1.0  0.3376612564081376  0.9140253091843421  0.6304835178114243  1.0000
  Cd  Cd4       1.0  0.8489494067434874  0.15677850525573445  0.7462429203582912  1.0000
  S   S1        1.0  0.41857678859543085  0.25693671129647766  0.28049101167512874  1.0000
  S   S2        1.0  0.8914213590523969  0.054963636226527786  0.1893336056959932  1.0000
  S   S3        1.0  0.5623545790512054  0.5711494636359682  0.8564187448989563  1.0000
  S   S4        1.0  0.04240448317671808  0.5712206483048609  0.6406194983919011  1.0000
  O   O1        1.0  0.987596973997271  0.8726076096138797  0.04953742813597659  1.0000
  O   O2        1.0  0.47828720076413445  0.17899729894792166  0.47881799271057246  1.0000
  O   O3        1.0  0.9203675254466253  0.5623776290799666  0.8231791927164008  1.0000
  O   O4        1.0  0.7490262116845701  0.07901879558669678  0.088604922850815  1.0000
  O   O5        1.0  0.4914109551060497  0.5561084887305892  0.26925984320254226  1.0000
  O   O6        1.0  0.9475798911682165  0.32148459269130714  0.25814498162831295  1.0000
  O   O7        1.0  0.6202696990290483  0.883107750164536  0.6983024704705251  1.0000
  O   O8        1.0  0.07254307054118336  0.9123572295117033  0.6001238682345877  1.0000
  O   O9        1.0  0.15194429332928605  0.43604525499436186  0.7455468658088538  1.0000
  O   O10       1.0  0.3977989910817268  0.6477272361070661  0.8843898693131251  1.0000
  O   O11       1.0  0.8502769831596079  0.8425068261918437  0.37299926885263934  1.0000
  O   O12       1.0  0.2556925675278243  0.38100307937448474  0.3204674074377164  1.0000
data_image144
_chemical_formula_structural       Cd4S4O12
_chemical_formula_sum              "Cd4 S4 O12"
_cell_length_a       9.025715
_cell_length_b       4.573479000000001
_cell_length_c       7.283293351582442
_cell_angle_alpha    88.92985652425466
_cell_angle_beta     90.0
_cell_angle_gamma    90.0

_space_group_name_H-M_alt    "P 1"
_space_group_IT_number       1

loop_
  _space_group_symop_operation_xyz
  'x, y, z'

loop_
  _atom_site_type_symbol
  _atom_site_label
  _atom_site_symmetry_multiplicity
  _atom_site_fract_x
  _atom_site_fract_y
  _atom_site_fract_z
  _atom_site_occupancy
  Cd  Cd1       1.0  0.7034661968597207  0.7419828915061162  0.4141794391632874  1.0000
  Cd  Cd2       1.0  0.13338071205214738  0.5899848763457726  0.12070073059415054  1.0000
  Cd  Cd3       1.0  0.3029659637715417  0.8829386258728764  0.656427249186984  1.0000
  Cd  Cd4       1.0  0.8765061642601426  0.039412591563303234  0.8008602164359958  1.0000
  S   S1        1.0  0.45177428729551  0.24770937962031675  0.2837060763236275  1.0000
  S   S2        1.0  0.884771939555043  0.12579746424159674  0.1263741506256646  1.0000
  S   S3        1.0  0.5184540239874769  0.6174651605929622  0.9017563020693057  1.0000
  S   S4        1.0  0.025510596959566367  0.5268591669227257  0.5926333038862467  1.0000
  O   O1        1.0  0.03297458548540244  0.07297659846785422  0.032508616397158865  1.0000
  O   O2        1.0  0.48720870161590296  0.19960373884956498  0.46526051326580486  1.0000
  O   O3        1.0  0.9152712685236862  0.5424040423275682  0.7649472606640868  1.0000
  O   O4        1.0  0.7350115948808769  0.01921400064446588  0.07339067577562397  1.0000
  O   O5        1.0  0.567583524905877  0.5094730396466391  0.24274969184280953  1.0000
  O   O6        1.0  0.9006621558814849  0.46021077964250523  0.13425083386883657  1.0000
  O   O7        1.0  0.6078818091673012  0.7113669017444582  0.7283518842407061  1.0000
  O   O8        1.0  0.05365961134049102  0.8832141237294937  0.6043432633553655  1.0000
  O   O9        1.0  0.21240911418006014  0.4574598148186175  0.6649966409414241  1.0000
  O   O10       1.0  0.37325047580836856  0.7863350395473878  0.9493226962919923  1.0000
  O   O11       1.0  0.9224366460602478  0.962009715727763  0.32318292203264337  1.0000
  O   O12       1.0  0.30650529423271056  0.42932823631129735  0.2832346501810632  1.0000
data_image145
_chemical_formula_structural       Cd4S4O12
_chemical_formula_sum              "Cd4 S4 O12"
_cell_length_a       9.025715
_cell_length_b       4.573479000000001
_cell_length_c       7.283293351582442
_cell_angle_alpha    88.92985652425466
_cell_angle_beta     90.0
_cell_angle_gamma    90.0

_space_group_name_H-M_alt    "P 1"
_space_group_IT_number       1

loop_
  _space_group_symop_operation_xyz
  'x, y, z'

loop_
  _atom_site_type_symbol
  _atom_site_label
  _atom_site_symmetry_multiplicity
  _atom_site_fract_x
  _atom_site_fract_y
  _atom_site_fract_z
  _atom_site_occupancy
  Cd  Cd1       1.0  0.7162454473173515  0.7065627507557743  0.37246328172653753  1.0000
  Cd  Cd2       1.0  0.14372624791304275  0.6324138199049556  0.0967298848231429  1.0000
  Cd  Cd3       1.0  0.3076483702785089  0.02474550459147374  0.6651055838695332  1.0000
  Cd  Cd4       1.0  0.8727983629494968  0.8613393823778779  0.7741936864529234  1.0000
  S   S1        1.0  0.44591307673258607  0.2678165675987931  0.257679128442076  1.0000
  S   S2        1.0  0.8851859738527219  0.17126742308836693  0.20569254891953043  1.0000
  S   S3        1.0  0.4836120350290919  0.7818236837424126  0.8953555050040645  1.0000
  S   S4        1.0  0.07095782412114948  0.4459410510557892  0.6321401188601188  1.0000
  O   O1        1.0  0.0652146429339675  0.08870983610663731  0.20981872201253782  1.0000
  O   O2        1.0  0.44529940793699924  0.947330318451213  0.31141978137060805  1.0000
  O   O3        1.0  0.9135562669288229  0.36631784980202575  0.6763915882096189  1.0000
  O   O4        1.0  0.7881067615560321  0.01585471040251507  0.1019076877842533  1.0000
  O   O5        1.0  0.5771068800585484  0.3614364831006984  0.3559242736320507  1.0000
  O   O6        1.0  0.8971078715186125  0.4974151682670147  0.17042900461181862  1.0000
  O   O7        1.0  0.5416143683347445  0.04690020805855144  0.8022761215325821  1.0000
  O   O8        1.0  0.06739572117704506  0.7824555494923703  0.6063565042097142  1.0000
  O   O9        1.0  0.1899924419681498  0.44211037182035684  0.7932882445141721  1.0000
  O   O10       1.0  0.330678247167864  0.8525516577117569  0.9474109785889597  1.0000
  O   O11       1.0  0.8196128963750371  0.11824731278987424  0.40602549215058614  1.0000
  O   O12       1.0  0.29926480683297  0.4276554279038015  0.30525199033414774  1.0000
data_image146
_chemical_formula_structural       Cd4S4O12
_chemical_formula_sum              "Cd4 S4 O12"
_cell_length_a       9.025715
_cell_length_b       4.573479000000001
_cell_length_c       7.283293351582442
_cell_angle_alpha    88.92985652425466
_cell_angle_beta     90.0
_cell_angle_gamma    90.0

_space_group_name_H-M_alt    "P 1"
_space_group_IT_number       1

loop_
  _space_group_symop_operation_xyz
  'x, y, z'

loop_
  _atom_site_type_symbol
  _atom_site_label
  _atom_site_symmetry_multiplicity
  _atom_site_fract_x
  _atom_site_fract_y
  _atom_site_fract_z
  _atom_site_occupancy
  Cd  Cd1       1.0  0.6891860250209907  0.7607898909028556  0.37801004360815565  1.0000
  Cd  Cd2       1.0  0.15406700758293565  0.5717178796081417  0.13401757641398143  1.0000
  Cd  Cd3       1.0  0.3599870494694547  0.14239920370169107  0.584343837534176  1.0000
  Cd  Cd4       1.0  0.8306396262517375  0.800367255846787  0.7862780729960714  1.0000
  S   S1        1.0  0.47397583793168824  0.2737236139868642  0.25331695110647523  1.0000
  S   S2        1.0  0.9011187314315598  0.18037897928763275  0.23251986929218957  1.0000
  S   S3        1.0  0.44020632187418823  0.8157129048425069  0.9026512920034069  1.0000
  S   S4        1.0  0.08960081466667136  0.35262210809329186  0.6533448054282455  1.0000
  O   O1        1.0  0.06268037703944129  0.002670034246333181  0.22150454166085776  1.0000
  O   O2        1.0  0.4856403300199279  0.8879776142453195  0.29438830036932895  1.0000
  O   O3        1.0  0.9328408684144529  0.36891876934034173  0.7570563082686091  1.0000
  O   O4        1.0  0.8266284348956613  0.9461173861298083  0.13235920628081987  1.0000
  O   O5        1.0  0.530618168118346  0.40763408324937944  0.4211607197589466  1.0000
  O   O6        1.0  0.8940435921557288  0.4489766326360689  0.1380664445761417  1.0000
  O   O7        1.0  0.5193174213023681  0.10773636214439053  0.8477707583369156  1.0000
  O   O8        1.0  0.07097385016115298  0.6499015233213723  0.522963631993832  1.0000
  O   O9        1.0  0.19301101893460193  0.3955641691613797  0.8075417636093978  1.0000
  O   O10       1.0  0.2893349204461837  0.9219672384732045  0.9604589012984301  1.0000
  O   O11       1.0  0.8474389244351768  0.2855030900885322  0.42373462164420833  1.0000
  O   O12       1.0  0.2996198806358765  0.24762280584285692  0.23072157778116267  1.0000
data_image147
_chemical_formula_structural       Cd4S4O12
_chemical_formula_sum              "Cd4 S4 O12"
_cell_length_a       9.025715
_cell_length_b       4.573479000000001
_cell_length_c       7.283293351582442
_cell_angle_alpha    88.92985652425466
_cell_angle_beta     90.0
_cell_angle_gamma    90.0

_space_group_name_H-M_alt    "P 1"
_space_group_IT_number       1

loop_
  _space_group_symop_operation_xyz
  'x, y, z'

loop_
  _atom_site_type_symbol
  _atom_site_label
  _atom_site_symmetry_multiplicity
  _atom_site_fract_x
  _atom_site_fract_y
  _atom_site_fract_z
  _atom_site_occupancy
  Cd  Cd1       1.0  0.7563512955784594  0.7281532404311395  0.4933079558981013  1.0000
  Cd  Cd2       1.0  0.12156209978292162  0.6419769210137851  0.10246266796073615  1.0000
  Cd  Cd3       1.0  0.36981396849494147  0.1814682461631595  0.5895365787508412  1.0000
  Cd  Cd4       1.0  0.7942187678339754  0.7437370866530052  0.81481402671665  1.0000
  S   S1        1.0  0.5130777206385836  0.2910278955221891  0.259241799402939  1.0000
  S   S2        1.0  0.8638513106710854  0.15243741945183792  0.17450052115226541  1.0000
  S   S3        1.0  0.4746507102086762  0.840596064433546  0.9808225959008009  1.0000
  S   S4        1.0  0.046334075224520266  0.3029540029692105  0.5427360910014261  1.0000
  O   O1        1.0  0.04918657559591755  0.045268823431136924  0.1622659664155258  1.0000
  O   O2        1.0  0.4989160644872918  0.9647923875585097  0.2820502586349772  1.0000
  O   O3        1.0  0.911239834224354  0.33282512566553546  0.6520508221109624  1.0000
  O   O4        1.0  0.7644173505040087  0.9646838345487024  0.08585584295958015  1.0000
  O   O5        1.0  0.5530814294005586  0.4016711555565078  0.44520131519049594  1.0000
  O   O6        1.0  0.9055903653186821  0.43450869315745333  0.07313573852735593  1.0000
  O   O7        1.0  0.5492728239060712  0.07955427770782375  0.8166562665458181  1.0000
  O   O8        1.0  0.043852740683577585  0.5741508989534629  0.4136361961703512  1.0000
  O   O9        1.0  0.17124532617517318  0.38045471532684927  0.6940315179605013  1.0000
  O   O10       1.0  0.3074280463820046  0.816275153726326  0.9204372677264104  1.0000
  O   O11       1.0  0.796069266555661  0.20646831342645053  0.3642107441732446  1.0000
  O   O12       1.0  0.3532908894769686  0.39646113100027436  0.1792311266581024  1.0000
data_image148
_chemical_formula_structural       Cd4S4O12
_chemical_formula_sum              "Cd4 S4 O12"
_cell_length_a       9.025715
_cell_length_b       4.573479000000001
_cell_length_c       7.283293351582442
_cell_angle_alpha    88.92985652425466
_cell_angle_beta     90.0
_cell_angle_gamma    90.0

_space_group_name_H-M_alt    "P 1"
_space_group_IT_number       1

loop_
  _space_group_symop_operation_xyz
  'x, y, z'

loop_
  _atom_site_type_symbol
  _atom_site_label
  _atom_site_symmetry_multiplicity
  _atom_site_fract_x
  _atom_site_fract_y
  _atom_site_fract_z
  _atom_site_occupancy
  Cd  Cd1       1.0  0.7552338977162018  0.6079436577388166  0.4723450191068244  1.0000
  Cd  Cd2       1.0  0.1688430288303179  0.5888301381436544  0.11350390134612988  1.0000
  Cd  Cd3       1.0  0.3883462189393249  0.204832837814444  0.5854238833908718  1.0000
  Cd  Cd4       1.0  0.7815990296237956  0.8078678472186932  0.840420740338339  1.0000
  S   S1        1.0  0.4358684966437884  0.2842155701343716  0.22178641030926774  1.0000
  S   S2        1.0  0.8140902539085653  0.2618261433547319  0.14034249332961737  1.0000
  S   S3        1.0  0.5105574447243276  0.8660124722984013  0.9637459217925047  1.0000
  S   S4        1.0  0.05890362074799782  0.31082637726789986  0.5710383087304836  1.0000
  O   O1        1.0  0.96129660176381  0.17666209415364956  0.07444161824109537  1.0000
  O   O2        1.0  0.476657559086263  0.9851186694419662  0.2839277154581506  1.0000
  O   O3        1.0  0.9342307404485657  0.3956282503202333  0.7167911934722946  1.0000
  O   O4        1.0  0.7179853012673582  0.2700364376544513  0.9866780099703905  1.0000
  O   O5        1.0  0.5203831425285674  0.45311705233748967  0.3845330333724751  1.0000
  O   O6        1.0  0.8527345704378984  0.6032664249114208  0.19874264176176962  1.0000
  O   O7        1.0  0.5458188433830792  0.06631098462840557  0.8013803462702886  1.0000
  O   O8        1.0  0.11684416699920708  0.5859460684347713  0.4542136247547456  1.0000
  O   O9        1.0  0.17692339137746527  0.25632339898423084  0.6972596090648653  1.0000
  O   O10       1.0  0.3341056966430274  0.780006506853905  0.9406936496125222  1.0000
  O   O11       1.0  0.7816009980508163  0.0976064708406468  0.29594921784278216  1.0000
  O   O12       1.0  0.271006378578563  0.26781803900518036  0.29229242319704524  1.0000
data_image149
_chemical_formula_structural       Cd4S4O12
_chemical_formula_sum              "Cd4 S4 O12"
_cell_length_a       9.025715
_cell_length_b       4.573479000000001
_cell_length_c       7.283293351582442
_cell_angle_alpha    88.92985652425466
_cell_angle_beta     90.0
_cell_angle_gamma    90.0

_space_group_name_H-M_alt    "P 1"
_space_group_IT_number       1

loop_
  _space_group_symop_operation_xyz
  'x, y, z'

loop_
  _atom_site_type_symbol
  _atom_site_label
  _atom_site_symmetry_multiplicity
  _atom_site_fract_x
  _atom_site_fract_y
  _atom_site_fract_z
  _atom_site_occupancy
  Cd  Cd1       1.0  0.7484100795163179  0.5869675745415363  0.46067369421886156  1.0000
  Cd  Cd2       1.0  0.16137321042915923  0.535569490817442  0.10102937292879208  1.0000
  Cd  Cd3       1.0  0.3488410601430218  0.2333427493059832  0.6266898397536654  1.0000
  Cd  Cd4       1.0  0.7591915083646822  0.8728361756961307  0.8069702618727755  1.0000
  S   S1        1.0  0.5029392178177297  0.24827798627956668  0.2573072660823283  1.0000
  S   S2        1.0  0.8790870215057134  0.2572839605487283  0.13226317031249366  1.0000
  S   S3        1.0  0.4951172544342665  0.7414915843165262  0.8871493658009019  1.0000
  S   S4        1.0  0.05452814237680648  0.39237726969588693  0.6167338169832961  1.0000
  O   O1        1.0  0.020284592341598406  0.08770747480880188  0.12799677722521915  1.0000
  O   O2        1.0  0.5434426709578373  0.9317009889532212  0.257590218223111  1.0000
  O   O3        1.0  0.9584592345218408  0.7148525169956689  0.6549944106348293  1.0000
  O   O4        1.0  0.8010264501274615  0.24682956473544015  0.957919125522306  1.0000
  O   O5        1.0  0.5411605675207735  0.3631712756044827  0.46640855792591535  1.0000
  O   O6        1.0  0.9074738426463993  0.5759329952643981  0.1507498174467464  1.0000
  O   O7        1.0  0.48019769524383443  0.06644390304062409  0.8465917228947977  1.0000
  O   O8        1.0  0.17621417090954528  0.5639479654537793  0.5078854823416109  1.0000
  O   O9        1.0  0.11501135057160083  0.33948634190795146  0.8255265210770591  1.0000
  O   O10       1.0  0.32243886302600855  0.6346912238331219  0.8858879576743091  1.0000
  O   O11       1.0  0.7868227870513507  0.14957473576605823  0.29703968314869394  1.0000
  O   O12       1.0  0.3462239579172272  0.3127565661244371  0.2700294779853747  1.0000
data_image150
_chemical_formula_structural       Cd4S4O12
_chemical_formula_sum              "Cd4 S4 O12"
_cell_length_a       9.025715
_cell_length_b       4.573479000000001
_cell_length_c       7.283293351582442
_cell_angle_alpha    88.92985652425466
_cell_angle_beta     90.0
_cell_angle_gamma    90.0

_space_group_name_H-M_alt    "P 1"
_space_group_IT_number       1

loop_
  _space_group_symop_operation_xyz
  'x, y, z'

loop_
  _atom_site_type_symbol
  _atom_site_label
  _atom_site_symmetry_multiplicity
  _atom_site_fract_x
  _atom_site_fract_y
  _atom_site_fract_z
  _atom_site_occupancy
  Cd  Cd1       1.0  0.7616282875799687  0.6532903596758011  0.39673633182293516  1.0000
  Cd  Cd2       1.0  0.172506938432313  0.4713580648179391  0.06590753590658786  1.0000
  Cd  Cd3       1.0  0.37383358401921346  0.30029072374156157  0.6308064581771167  1.0000
  Cd  Cd4       1.0  0.7404884904039142  0.7649919972223151  0.7911612476288251  1.0000
  S   S1        1.0  0.5113995893715289  0.1948416030199686  0.29881234371717363  1.0000
  S   S2        1.0  0.8975223723726817  0.16670435444039552  0.179808193812003  1.0000
  S   S3        1.0  0.47693223006838736  0.8332435316694451  0.9155486492557598  1.0000
  S   S4        1.0  0.010645064795284931  0.5818141861670566  0.6393436769077413  1.0000
  O   O1        1.0  0.03628920066793406  0.9646271616710798  0.13652767215899747  1.0000
  O   O2        1.0  0.5116230635331024  0.8862539284065604  0.3818757680899965  1.0000
  O   O3        1.0  0.9414985331087014  0.8961240592463753  0.6645199569160426  1.0000
  O   O4        1.0  0.787788647078201  0.12178885811840146  0.04117145458347182  1.0000
  O   O5        1.0  0.5714906943515414  0.368111455663924  0.4566729437420689  1.0000
  O   O6        1.0  0.8918965877176246  0.5221670570136323  0.16501637002801364  1.0000
  O   O7        1.0  0.4096070513655561  0.13151084567966764  0.9506116374623557  1.0000
  O   O8        1.0  0.17271174669515665  0.6304294275809402  0.5846552554756311  1.0000
  O   O9        1.0  0.024331914435326008  0.4078845089151055  0.8228837446628978  1.0000
  O   O10       1.0  0.3302912690122076  0.6531922942771511  0.8628081814437759  1.0000
  O   O11       1.0  0.8485626682721397  0.12815416163506407  0.3723641892197227  1.0000
  O   O12       1.0  0.33408889916260587  0.251910022166319  0.30409127672068037  1.0000
data_image151
_chemical_formula_structural       Cd4S4O12
_chemical_formula_sum              "Cd4 S4 O12"
_cell_length_a       9.025715
_cell_length_b       4.573479000000001
_cell_length_c       7.283293351582442
_cell_angle_alpha    88.92985652425466
_cell_angle_beta     90.0
_cell_angle_gamma    90.0

_space_group_name_H-M_alt    "P 1"
_space_group_IT_number       1

loop_
  _space_group_symop_operation_xyz
  'x, y, z'

loop_
  _atom_site_type_symbol
  _atom_site_label
  _atom_site_symmetry_multiplicity
  _atom_site_fract_x
  _atom_site_fract_y
  _atom_site_fract_z
  _atom_site_occupancy
  Cd  Cd1       1.0  0.7566883753952858  0.6620932147447304  0.4030416276590279  1.0000
  Cd  Cd2       1.0  0.17874447773098967  0.496113144443114  0.060140085887905516  1.0000
  Cd  Cd3       1.0  0.38697322009078317  0.29988091677294726  0.6475293998266262  1.0000
  Cd  Cd4       1.0  0.7124037920594428  0.7377482230926037  0.771434676479791  1.0000
  S   S1        1.0  0.4869760446528638  0.2683273753217263  0.28267970698970674  1.0000
  S   S2        1.0  0.9293759114421261  0.0963550624821083  0.16889317300269477  1.0000
  S   S3        1.0  0.46912246021495174  0.877632088108272  0.9509272760577118  1.0000
  S   S4        1.0  0.026313509469787055  0.5073837815690195  0.6311283462538583  1.0000
  O   O1        1.0  0.09374544408067642  0.0368513604940741  0.17307481193389057  1.0000
  O   O2        1.0  0.4412013996354645  0.006360361098666109  0.3916545948469652  1.0000
  O   O3        1.0  0.9197748369373182  0.8038785949912841  0.6289052384703188  1.0000
  O   O4        1.0  0.8409645274808365  0.9509406452355444  0.028797155637943384  1.0000
  O   O5        1.0  0.5831992805323888  0.3775166614232912  0.4930814312846975  1.0000
  O   O6        1.0  0.8869534154145079  0.4230813040264674  0.15079593237129643  1.0000
  O   O7        1.0  0.4356910850973677  0.18769545910882757  0.9135003869760623  1.0000
  O   O8        1.0  0.19141828930474003  0.6247531378887857  0.6386863310217016  1.0000
  O   O9        1.0  0.9900747020900984  0.41397517611228385  0.8331849113083689  1.0000
  O   O10       1.0  0.3316265831264754  0.687165912901571  0.914415911580329  1.0000
  O   O11       1.0  0.8603781222557833  0.05462933340718708  0.3558931687862844  1.0000
  O   O12       1.0  0.3419024039845597  0.40597120004956394  0.23741928397968187  1.0000
data_image152
_chemical_formula_structural       Cd4S4O12
_chemical_formula_sum              "Cd4 S4 O12"
_cell_length_a       9.025715
_cell_length_b       4.573479000000001
_cell_length_c       7.283293351582442
_cell_angle_alpha    88.92985652425466
_cell_angle_beta     90.0
_cell_angle_gamma    90.0

_space_group_name_H-M_alt    "P 1"
_space_group_IT_number       1

loop_
  _space_group_symop_operation_xyz
  'x, y, z'

loop_
  _atom_site_type_symbol
  _atom_site_label
  _atom_site_symmetry_multiplicity
  _atom_site_fract_x
  _atom_site_fract_y
  _atom_site_fract_z
  _atom_site_occupancy
  Cd  Cd1       1.0  0.7743864095573038  0.575538151745291  0.3944869364546274  1.0000
  Cd  Cd2       1.0  0.16948977966351506  0.5682255301864113  0.0950577395737971  1.0000
  Cd  Cd3       1.0  0.3415584550055894  0.3227294609718244  0.60885302097657  1.0000
  Cd  Cd4       1.0  0.6569782774796437  0.6764805442732341  0.7919216413476845  1.0000
  S   S1        1.0  0.5378989066407336  0.3371217131252717  0.28253845570173086  1.0000
  S   S2        1.0  0.926073071961431  0.08819328698864247  0.17683070203585657  1.0000
  S   S3        1.0  0.46236818493712245  0.9627506695588344  0.9431525198593228  1.0000
  S   S4        1.0  0.0431670477580095  0.4773546277540184  0.6421763487325911  1.0000
  O   O1        1.0  0.0917824718294793  0.021008362204900977  0.1510611309313283  1.0000
  O   O2        1.0  0.5520022150341894  0.052167798596332374  0.352962140620062  1.0000
  O   O3        1.0  0.9621479070471685  0.7416261613654618  0.696341907915877  1.0000
  O   O4        1.0  0.8299861662232356  0.9166902791294592  0.03658719833601243  1.0000
  O   O5        1.0  0.6369052870989372  0.33571209861077556  0.6072023714237478  1.0000
  O   O6        1.0  0.9469406282278273  0.4064466104082489  0.1773151428010423  1.0000
  O   O7        1.0  0.5429294101810632  0.2689616561586825  0.9363521764228346  1.0000
  O   O8        1.0  0.16335431792058586  0.6108878515856428  0.48952368991138717  1.0000
  O   O9        1.0  0.12334633774273729  0.3325454572611999  0.8146220232997283  1.0000
  O   O10       1.0  0.3696348932739216  0.9067050512745551  0.7686952155298787  1.0000
  O   O11       1.0  0.854616126881188  0.02909133373811584  0.3624604763442874  1.0000
  O   O12       1.0  0.3805960980391317  0.4873105470138725  0.285378395108021  1.0000
data_image153
_chemical_formula_structural       Cd4S4O12
_chemical_formula_sum              "Cd4 S4 O12"
_cell_length_a       9.025715
_cell_length_b       4.573479000000001
_cell_length_c       7.283293351582442
_cell_angle_alpha    88.92985652425466
_cell_angle_beta     90.0
_cell_angle_gamma    90.0

_space_group_name_H-M_alt    "P 1"
_space_group_IT_number       1

loop_
  _space_group_symop_operation_xyz
  'x, y, z'

loop_
  _atom_site_type_symbol
  _atom_site_label
  _atom_site_symmetry_multiplicity
  _atom_site_fract_x
  _atom_site_fract_y
  _atom_site_fract_z
  _atom_site_occupancy
  Cd  Cd1       1.0  0.7643728889807284  0.5876469020617354  0.42165154038946223  1.0000
  Cd  Cd2       1.0  0.1935645545832048  0.539159370862041  0.12146834137128765  1.0000
  Cd  Cd3       1.0  0.35924731144381034  0.35461232953833793  0.6067981627894271  1.0000
  Cd  Cd4       1.0  0.6725799882203904  0.6363764449735898  0.826686981608647  1.0000
  S   S1        1.0  0.5370408328747586  0.31112020248127453  0.2949070510689429  1.0000
  S   S2        1.0  0.9098897579644234  0.08258273575351192  0.11302406846798305  1.0000
  S   S3        1.0  0.45688077009069045  0.11545405498380568  0.939467843298409  1.0000
  S   S4        1.0  0.03309671896244337  0.4130933441148995  0.6594033844399363  1.0000
  O   O1        1.0  0.05565815239290761  0.9621119397821561  0.13722178431216014  1.0000
  O   O2        1.0  0.5311325551122655  0.9854076317232185  0.30510062917758674  1.0000
  O   O3        1.0  0.9165165271206933  0.6766885579803421  0.6263691891668147  1.0000
  O   O4        1.0  0.8110617958230927  0.9158747611753123  0.9960200604929117  1.0000
  O   O5        1.0  0.6011751304732892  0.3855194642229678  0.5368543370279397  1.0000
  O   O6        1.0  0.9325825230646494  0.3790204672598487  0.036246125013455636  1.0000
  O   O7        1.0  0.4412126852468056  0.4531310090313183  0.898182969607453  1.0000
  O   O8        1.0  0.12990826126899324  0.402058805995697  0.46027211524030903  1.0000
  O   O9        1.0  0.1333241752393406  0.5345916249095919  0.8042871817969646  1.0000
  O   O10       1.0  0.4305892215001754  0.954789731801547  0.7581757624081794  1.0000
  O   O11       1.0  0.8237001185157105  0.10237750738302717  0.3070445411421974  1.0000
  O   O12       1.0  0.37806668546638894  0.42990740070638894  0.2867102882920921  1.0000
data_image154
_chemical_formula_structural       Cd4S4O12
_chemical_formula_sum              "Cd4 S4 O12"
_cell_length_a       9.025715
_cell_length_b       4.573479000000001
_cell_length_c       7.283293351582442
_cell_angle_alpha    88.92985652425466
_cell_angle_beta     90.0
_cell_angle_gamma    90.0

_space_group_name_H-M_alt    "P 1"
_space_group_IT_number       1

loop_
  _space_group_symop_operation_xyz
  'x, y, z'

loop_
  _atom_site_type_symbol
  _atom_site_label
  _atom_site_symmetry_multiplicity
  _atom_site_fract_x
  _atom_site_fract_y
  _atom_site_fract_z
  _atom_site_occupancy
  Cd  Cd1       1.0  0.803580977618454  0.6574748358705508  0.34652956496846593  1.0000
  Cd  Cd2       1.0  0.18911412820588325  0.5261842797141126  0.08558231721970319  1.0000
  Cd  Cd3       1.0  0.3283495023930261  0.36675270369156054  0.6528067806025589  1.0000
  Cd  Cd4       1.0  0.6701268033370158  0.6442817908627119  0.8248197140378202  1.0000
  S   S1        1.0  0.5572599991900855  0.22818233136958385  0.3259269860042255  1.0000
  S   S2        1.0  0.8974807697822668  0.06997775919031342  0.12496327913571711  1.0000
  S   S3        1.0  0.44198621223551027  0.1205360024030333  0.9989359648756146  1.0000
  S   S4        1.0  0.020893407653401086  0.35191742846255314  0.640747995889823  1.0000
  O   O1        1.0  0.05587640406876404  0.924925195927099  0.05447233475862901  1.0000
  O   O2        1.0  0.5635671958184665  0.8823872048214944  0.3731231778542829  1.0000
  O   O3        1.0  0.8773289043708072  0.5556279359356047  0.6671524207662457  1.0000
  O   O4        1.0  0.7769928881615576  0.8867681082918321  0.04603473392960944  1.0000
  O   O5        1.0  0.605029664337479  0.4431446944712867  0.5080124936398056  1.0000
  O   O6        1.0  0.8972206639184802  0.37739989174856436  0.0675805204662057  1.0000
  O   O7        1.0  0.4883615838638629  0.4399083164373345  0.031380093387393115  1.0000
  O   O8        1.0  0.06115054773091555  0.43165329286567716  0.46534531597045486  1.0000
  O   O9        1.0  0.11959960484106436  0.5923982262208802  0.7707426915939319  1.0000
  O   O10       1.0  0.48239544394805034  0.04071309886739316  0.7744661296126977  1.0000
  O   O11       1.0  0.9020919882417803  0.08289299795767138  0.334431819048611  1.0000
  O   O12       1.0  0.3865599904817315  0.2650859251056357  0.36355956860545185  1.0000
data_image155
_chemical_formula_structural       Cd4S4O12
_chemical_formula_sum              "Cd4 S4 O12"
_cell_length_a       9.025715
_cell_length_b       4.573479000000001
_cell_length_c       7.283293351582442
_cell_angle_alpha    88.92985652425466
_cell_angle_beta     90.0
_cell_angle_gamma    90.0

_space_group_name_H-M_alt    "P 1"
_space_group_IT_number       1

loop_
  _space_group_symop_operation_xyz
  'x, y, z'

loop_
  _atom_site_type_symbol
  _atom_site_label
  _atom_site_symmetry_multiplicity
  _atom_site_fract_x
  _atom_site_fract_y
  _atom_site_fract_z
  _atom_site_occupancy
  Cd  Cd1       1.0  0.7577625734338623  0.6078503709159324  0.3902446234079466  1.0000
  Cd  Cd2       1.0  0.16654083685486679  0.542771505689845  0.08635111693352607  1.0000
  Cd  Cd3       1.0  0.37403312543166  0.47437931879269934  0.6339137784613434  1.0000
  Cd  Cd4       1.0  0.6999245872146833  0.6965320735175922  0.8380725557811292  1.0000
  S   S1        1.0  0.5327338585642619  0.1051546419157126  0.35998811187388813  1.0000
  S   S2        1.0  0.9060432541186861  0.07105390784882451  0.11253258779570939  1.0000
  S   S3        1.0  0.3953236479037044  0.01451458412480866  0.960415886796981  1.0000
  S   S4        1.0  0.02678839674652478  0.472835051307809  0.5768840188460282  1.0000
  O   O1        1.0  0.05768930096535496  0.0037006207999146267  0.9983325760611528  1.0000
  O   O2        1.0  0.5592414538916212  0.7934884008134392  0.45722698774489223  1.0000
  O   O3        1.0  0.9203497790165278  0.7103387636057188  0.6771792716610802  1.0000
  O   O4        1.0  0.7621449124052343  0.946178627183514  0.057248812386964776  1.0000
  O   O5        1.0  0.6245006242443735  0.2738540298257308  0.5142216156651679  1.0000
  O   O6        1.0  0.9159945523855003  0.38438534752302667  0.09512069196248331  1.0000
  O   O7        1.0  0.5152098188039124  0.23125228506847306  0.937969474693778  1.0000
  O   O8        1.0  0.11346438829941552  0.5773187342344889  0.4017408967522059  1.0000
  O   O9        1.0  0.13294533293099886  0.3278169249587325  0.6829733550323989  1.0000
  O   O10       1.0  0.4161833532693863  0.8279600557343356  0.7950643164483617  1.0000
  O   O11       1.0  0.8970817686945749  0.008006880685470178  0.31863428153340045  1.0000
  O   O12       1.0  0.36929944258636443  0.17664154145572675  0.40501905969567237  1.0000
data_image156
_chemical_formula_structural       Cd4S4O12
_chemical_formula_sum              "Cd4 S4 O12"
_cell_length_a       9.025715
_cell_length_b       4.573479000000001
_cell_length_c       7.283293351582442
_cell_angle_alpha    88.92985652425466
_cell_angle_beta     90.0
_cell_angle_gamma    90.0

_space_group_name_H-M_alt    "P 1"
_space_group_IT_number       1

loop_
  _space_group_symop_operation_xyz
  'x, y, z'

loop_
  _atom_site_type_symbol
  _atom_site_label
  _atom_site_symmetry_multiplicity
  _atom_site_fract_x
  _atom_site_fract_y
  _atom_site_fract_z
  _atom_site_occupancy
  Cd  Cd1       1.0  0.7711814336928574  0.5914569234058804  0.42244038640832526  1.0000
  Cd  Cd2       1.0  0.13410169794773916  0.5087030717060764  0.06480869098345622  1.0000
  Cd  Cd3       1.0  0.38979392429004883  0.5545195055224901  0.6221403420314757  1.0000
  Cd  Cd4       1.0  0.7099446393944306  0.6597729042646556  0.8253383495900192  1.0000
  S   S1        1.0  0.5250821866300297  0.05273025728735646  0.34018741197079694  1.0000
  S   S2        1.0  0.8554742210407813  0.11425900377037893  0.14494136325739693  1.0000
  S   S3        1.0  0.41829993674795024  0.0735027640739161  0.9750337773594295  1.0000
  S   S4        1.0  0.08992179053012861  0.4044653053208199  0.5483754907896612  1.0000
  O   O1        1.0  0.002929840922018423  0.9947712104456831  0.09357362007983655  1.0000
  O   O2        1.0  0.5362889887981481  0.7172923378413733  0.34327090359541285  1.0000
  O   O3        1.0  0.9545280118930444  0.5897054470100291  0.6140012749892265  1.0000
  O   O4        1.0  0.7290325276068487  0.12266033604159743  0.021961854810248038  1.0000
  O   O5        1.0  0.6218794579708379  0.16409413768201486  0.4810760250971362  1.0000
  O   O6        1.0  0.8946031312629026  0.46526702009207765  0.16957994302678078  1.0000
  O   O7        1.0  0.3885238137440219  0.40290176845075387  0.9731532146565064  1.0000
  O   O8        1.0  0.17550893191542194  0.6559719417444767  0.4916238827005529  1.0000
  O   O9        1.0  0.19821396115586598  0.27449607348730554  0.7455198645985419  1.0000
  O   O10       1.0  0.47013882517221306  0.9389747677639091  0.7929054312124991  1.0000
  O   O11       1.0  0.8440938599807459  0.9909496169037927  0.3199732655299885  1.0000
  O   O12       1.0  0.36740357283896136  0.043516238639817885  0.3933293139332661  1.0000
data_image157
_chemical_formula_structural       Cd4S4O12
_chemical_formula_sum              "Cd4 S4 O12"
_cell_length_a       9.025715
_cell_length_b       4.573479000000001
_cell_length_c       7.283293351582442
_cell_angle_alpha    88.92985652425466
_cell_angle_beta     90.0
_cell_angle_gamma    90.0

_space_group_name_H-M_alt    "P 1"
_space_group_IT_number       1

loop_
  _space_group_symop_operation_xyz
  'x, y, z'

loop_
  _atom_site_type_symbol
  _atom_site_label
  _atom_site_symmetry_multiplicity
  _atom_site_fract_x
  _atom_site_fract_y
  _atom_site_fract_z
  _atom_site_occupancy
  Cd  Cd1       1.0  0.7390119513583628  0.5247035913921164  0.42084667805757076  1.0000
  Cd  Cd2       1.0  0.14816863913463268  0.5620923447500664  0.04844571988595545  1.0000
  Cd  Cd3       1.0  0.40619532118784224  0.6530350998406697  0.6228080985476595  1.0000
  Cd  Cd4       1.0  0.7266903202275092  0.5608845026770102  0.7895031197748339  1.0000
  S   S1        1.0  0.5221510778492308  0.19470551170184872  0.37616364712416533  1.0000
  S   S2        1.0  0.8922669057932915  0.07771450625523946  0.11235233343998627  1.0000
  S   S3        1.0  0.39984028594067705  0.9543708182767467  0.04664939201075202  1.0000
  S   S4        1.0  0.08793930349558332  0.38244294395216816  0.6046665246114588  1.0000
  O   O1        1.0  0.04505008363461882  0.01646488432800532  0.08416590828145072  1.0000
  O   O2        1.0  0.5495660270712958  0.8924442436750888  0.31018962824110086  1.0000
  O   O3        1.0  0.93789189779722  0.5466076758840636  0.6207880504272448  1.0000
  O   O4        1.0  0.7956390595238781  0.9669804272095956  0.961650997065129  1.0000
  O   O5        1.0  0.6289519871134562  0.25503204608688335  0.595879734303306  1.0000
  O   O6        1.0  0.8575275907488702  0.3924395581895306  0.08056894010074196  1.0000
  O   O7        1.0  0.2953272519599586  0.22666031059667469  0.09129304450567965  1.0000
  O   O8        1.0  0.13160028581306094  0.5382899949627435  0.4425593390601423  1.0000
  O   O9        1.0  0.18274975156324547  0.4188115563610635  0.7722631394723369  1.0000
  O   O10       1.0  0.4079906108485667  0.9932593686052216  0.8202820141460919  1.0000
  O   O11       1.0  0.8557976006171966  0.0017471484745523855  0.3258423236020249  1.0000
  O   O12       1.0  0.3634582878464405  0.2865001403801287  0.44954869936378433  1.0000
data_image158
_chemical_formula_structural       Cd4S4O12
_chemical_formula_sum              "Cd4 S4 O12"
_cell_length_a       9.025715
_cell_length_b       4.573479000000001
_cell_length_c       7.283293351582442
_cell_angle_alpha    88.92985652425466
_cell_angle_beta     90.0
_cell_angle_gamma    90.0

_space_group_name_H-M_alt    "P 1"
_space_group_IT_number       1

loop_
  _space_group_symop_operation_xyz
  'x, y, z'

loop_
  _atom_site_type_symbol
  _atom_site_label
  _atom_site_symmetry_multiplicity
  _atom_site_fract_x
  _atom_site_fract_y
  _atom_site_fract_z
  _atom_site_occupancy
  Cd  Cd1       1.0  0.7851552070048571  0.4320017059130121  0.3735677473201633  1.0000
  Cd  Cd2       1.0  0.173298597727322  0.6195134197525297  0.008242661097437187  1.0000
  Cd  Cd3       1.0  0.36896850435231765  0.6935147918198863  0.6522536159668356  1.0000
  Cd  Cd4       1.0  0.7520365428149886  0.5228826437914722  0.8334746663911395  1.0000
  S   S1        1.0  0.5110061919006909  0.148954499527282  0.4510430781597281  1.0000
  S   S2        1.0  0.8719554084710511  0.06232495355877514  0.06562529927472752  1.0000
  S   S3        1.0  0.36450852730387473  0.9646737836565296  0.05624045065848815  1.0000
  S   S4        1.0  0.04625619637253453  0.46319993002707427  0.6302369985710804  1.0000
  O   O1        1.0  0.023232271074979494  0.03027798180298737  0.05828865150860389  1.0000
  O   O2        1.0  0.5684043356120447  0.8178025270113517  0.45904958682312313  1.0000
  O   O3        1.0  0.9000665123850485  0.6974495767165807  0.610259548549692  1.0000
  O   O4        1.0  0.8277728641587786  0.9919967557195979  0.8671772348313648  1.0000
  O   O5        1.0  0.6509948647286338  0.26809420462237865  0.6058188273914361  1.0000
  O   O6        1.0  0.8341234417533834  0.40511368177855867  0.08187540039458324  1.0000
  O   O7        1.0  0.31143643127303344  0.24756145898802284  0.17471543626553498  1.0000
  O   O8        1.0  0.06336440656681908  0.37969071199575744  0.43592987007304246  1.0000
  O   O9        1.0  0.1373448756243416  0.7614988293808344  0.6041522214632893  1.0000
  O   O10       1.0  0.38210364654327444  0.05962994435700386  0.8540091927235711  1.0000
  O   O11       1.0  0.7860067503189194  0.905753833298142  0.22444472743843188  1.0000
  O   O12       1.0  0.3659112028014352  0.15193641423284973  0.5568123912857554  1.0000
data_image159
_chemical_formula_structural       Cd4S4O12
_chemical_formula_sum              "Cd4 S4 O12"
_cell_length_a       9.025715
_cell_length_b       4.573479000000001
_cell_length_c       7.283293351582442
_cell_angle_alpha    88.92985652425466
_cell_angle_beta     90.0
_cell_angle_gamma    90.0

_space_group_name_H-M_alt    "P 1"
_space_group_IT_number       1

loop_
  _space_group_symop_operation_xyz
  'x, y, z'

loop_
  _atom_site_type_symbol
  _atom_site_label
  _atom_site_symmetry_multiplicity
  _atom_site_fract_x
  _atom_site_fract_y
  _atom_site_fract_z
  _atom_site_occupancy
  Cd  Cd1       1.0  0.7687352255313805  0.35875265851408894  0.3525165201684109  1.0000
  Cd  Cd2       1.0  0.15972351574869775  0.528665922860003  0.026920096298536495  1.0000
  Cd  Cd3       1.0  0.34007288415732595  0.6926022068829718  0.6680770818170867  1.0000
  Cd  Cd4       1.0  0.7126874941328271  0.5853866571209246  0.775861658303355  1.0000
  S   S1        1.0  0.5415511599866275  0.11562728883119912  0.5107546681381248  1.0000
  S   S2        1.0  0.9508058574294449  0.11268106367338403  0.051715441376301484  1.0000
  S   S3        1.0  0.4081035949738468  0.08673125931301451  0.17893300117437816  1.0000
  S   S4        1.0  0.07268345028287437  0.5525030978934993  0.5925909944349326  1.0000
  O   O1        1.0  0.10264737553761782  0.07554139387352225  0.08917826407440248  1.0000
  O   O2        1.0  0.5395616649350339  0.7993717684424756  0.47301756298432446  1.0000
  O   O3        1.0  0.9037766031123652  0.67872966237769  0.5773514049123258  1.0000
  O   O4        1.0  0.908187957593997  0.02423337595488473  0.8544657484863009  1.0000
  O   O5        1.0  0.6394011075548679  0.1372089704424373  0.6948196311997874  1.0000
  O   O6        1.0  0.9084875056685451  0.43710593516404994  0.044742557929578  1.0000
  O   O7        1.0  0.4021292585436256  0.4329926470661343  0.1532827462780708  1.0000
  O   O8        1.0  0.0779133501612077  0.38888981192834265  0.42839405264227637  1.0000
  O   O9        1.0  0.152596449051686  0.8459125925901214  0.5617664832174868  1.0000
  O   O10       1.0  0.3285067982700086  0.9604856679590104  0.9798869530899962  1.0000
  O   O11       1.0  0.8400366129071999  0.9544132867627091  0.17164009488571585  1.0000
  O   O12       1.0  0.3840547649650152  0.2387864790082322  0.5480769845105186  1.0000
data_image160
_chemical_formula_structural       Cd4S4O12
_chemical_formula_sum              "Cd4 S4 O12"
_cell_length_a       9.025715
_cell_length_b       4.573479000000001
_cell_length_c       7.283293351582442
_cell_angle_alpha    88.92985652425466
_cell_angle_beta     90.0
_cell_angle_gamma    90.0

_space_group_name_H-M_alt    "P 1"
_space_group_IT_number       1

loop_
  _space_group_symop_operation_xyz
  'x, y, z'

loop_
  _atom_site_type_symbol
  _atom_site_label
  _atom_site_symmetry_multiplicity
  _atom_site_fract_x
  _atom_site_fract_y
  _atom_site_fract_z
  _atom_site_occupancy
  Cd  Cd1       1.0  0.7695920039953396  0.4287071365144002  0.26888659895429995  1.0000
  Cd  Cd2       1.0  0.14387511868742137  0.4507074980391024  0.07899459349668464  1.0000
  Cd  Cd3       1.0  0.3452534907283218  0.6356329036144868  0.7485072431374101  1.0000
  Cd  Cd4       1.0  0.7167856712600138  0.6784054070917827  0.7473646492296322  1.0000
  S   S1        1.0  0.5284463043067328  0.19480499892432382  0.5272771494249241  1.0000
  S   S2        1.0  0.9240134117599843  0.9286905780691556  0.07585164202359537  1.0000
  S   S3        1.0  0.4802983104470235  0.058945225293492776  0.10488070644433511  1.0000
  S   S4        1.0  0.094558218014686  0.7547725930353071  0.5475544943584044  1.0000
  O   O1        1.0  0.08234707151852039  0.949456862497178  0.11217813374629418  1.0000
  O   O2        1.0  0.5487215590409894  0.8715097301467103  0.5394349826395001  1.0000
  O   O3        1.0  0.8881927826789802  0.5267278399150219  0.5066385744071525  1.0000
  O   O4        1.0  0.9005472277962886  0.7246992702617967  0.8999281704836863  1.0000
  O   O5        1.0  0.6273211441156372  0.25540935562243616  0.687989269627117  1.0000
  O   O6        1.0  0.8953683046423634  0.2679289852147635  0.01273431312732516  1.0000
  O   O7        1.0  0.4237247116247454  0.3498369844597575  0.1281698845978334  1.0000
  O   O8        1.0  0.09436119764393891  0.6088237955422728  0.37545242999503703  1.0000
  O   O9        1.0  0.051223930685096564  0.059155813330028735  0.5410197596473535  1.0000
  O   O10       1.0  0.41383163876397216  0.8993709210936649  0.9535872203940686  1.0000
  O   O11       1.0  0.8232092101185583  0.9082387885275316  0.2393662809137517  1.0000
  O   O12       1.0  0.3665527112630861  0.22074125622058918  0.6003207452808871  1.0000
data_image161
_chemical_formula_structural       Cd4S4O12
_chemical_formula_sum              "Cd4 S4 O12"
_cell_length_a       9.025715
_cell_length_b       4.573479000000001
_cell_length_c       7.283293351582442
_cell_angle_alpha    88.92985652425466
_cell_angle_beta     90.0
_cell_angle_gamma    90.0

_space_group_name_H-M_alt    "P 1"
_space_group_IT_number       1

loop_
  _space_group_symop_operation_xyz
  'x, y, z'

loop_
  _atom_site_type_symbol
  _atom_site_label
  _atom_site_symmetry_multiplicity
  _atom_site_fract_x
  _atom_site_fract_y
  _atom_site_fract_z
  _atom_site_occupancy
  Cd  Cd1       1.0  0.7124185571081915  0.4093356556177018  0.28111342124006317  1.0000
  Cd  Cd2       1.0  0.19834893716520235  0.4479621830593353  0.10956898564921486  1.0000
  Cd  Cd3       1.0  0.3400130612414065  0.6373522510765218  0.7585414280074404  1.0000
  Cd  Cd4       1.0  0.7283932521226711  0.7523097762049201  0.6920200648135965  1.0000
  S   S1        1.0  0.48364672681772647  0.18365035846291392  0.5357483539098763  1.0000
  S   S2        1.0  0.9298003345407403  0.9887414705883476  0.014302615235573222  1.0000
  S   S3        1.0  0.5083662678982295  0.9890873505304028  0.158959277199044  1.0000
  S   S4        1.0  0.053630646429546625  0.6867995987875415  0.5716775911839148  1.0000
  O   O1        1.0  0.09986083881332974  0.9961563929783691  0.004022960894866126  1.0000
  O   O2        1.0  0.5693600860838312  0.8724464121118436  0.522288616489372  1.0000
  O   O3        1.0  0.9028785105630474  0.497025151428113  0.5173694937285502  1.0000
  O   O4        1.0  0.9068192551392428  0.8013811360553393  0.8546142993795304  1.0000
  O   O5        1.0  0.5736151003481033  0.3428136685529568  0.7270288753227802  1.0000
  O   O6        1.0  0.8741898321360172  0.30591528851015315  0.9921010030682774  1.0000
  O   O7        1.0  0.4157086429179308  0.261831289191639  0.25755493833836773  1.0000
  O   O8        1.0  0.18801702953092625  0.5561748067692639  0.4626032003785454  1.0000
  O   O9        1.0  0.038355018162824495  0.9732857222929358  0.4918859319582709  1.0000
  O   O10       1.0  0.4408542373854133  0.9254622228531781  0.9647918930225824  1.0000
  O   O11       1.0  0.8603707349551322  0.812202444281978  0.16750804975571673  1.0000
  O   O12       1.0  0.3312738328012414  0.10845625990476687  0.6039400921360396  1.0000
data_image162
_chemical_formula_structural       Cd4S4O12
_chemical_formula_sum              "Cd4 S4 O12"
_cell_length_a       9.025715
_cell_length_b       4.573479000000001
_cell_length_c       7.283293351582442
_cell_angle_alpha    88.92985652425466
_cell_angle_beta     90.0
_cell_angle_gamma    90.0

_space_group_name_H-M_alt    "P 1"
_space_group_IT_number       1

loop_
  _space_group_symop_operation_xyz
  'x, y, z'

loop_
  _atom_site_type_symbol
  _atom_site_label
  _atom_site_symmetry_multiplicity
  _atom_site_fract_x
  _atom_site_fract_y
  _atom_site_fract_z
  _atom_site_occupancy
  Cd  Cd1       1.0  0.6852900025163682  0.3986968559144115  0.2590753424856766  1.0000
  Cd  Cd2       1.0  0.2013903666570117  0.48063910240461866  0.112097396580121  1.0000
  Cd  Cd3       1.0  0.2561553895622335  0.6411848204616799  0.777222442504232  1.0000
  Cd  Cd4       1.0  0.7177499767632045  0.7371508474766929  0.6926204464816769  1.0000
  S   S1        1.0  0.5056222905917036  0.26328752725519916  0.6168856900998922  1.0000
  S   S2        1.0  0.9558247233101933  0.922378663484874  0.05480173230141818  1.0000
  S   S3        1.0  0.5610041078140228  0.0037182095828924844  0.07265775549563669  1.0000
  S   S4        1.0  0.12039156604242618  0.6821204304764135  0.5084786144312333  1.0000
  O   O1        1.0  0.11028947059088146  0.9579049894393695  0.10186203186332231  1.0000
  O   O2        1.0  0.5196806009005165  0.9772480166891307  0.5103296587341065  1.0000
  O   O3        1.0  0.9858135403952409  0.5073468628137423  0.5262226235465545  1.0000
  O   O4        1.0  0.9451008997878345  0.7876392819879389  0.8558654371747866  1.0000
  O   O5        1.0  0.6713721895423899  0.23987842103319434  0.6947569192717292  1.0000
  O   O6        1.0  0.9169206316331185  0.2680054176096952  0.092629256464219  1.0000
  O   O7        1.0  0.45910326692269743  0.3060099305191901  0.10311310055744038  1.0000
  O   O8        1.0  0.2605802018274508  0.5598958428055446  0.4396901008709308  1.0000
  O   O9        1.0  0.11108070675690218  0.9773481326034161  0.4655093152985688  1.0000
  O   O10       1.0  0.5119980214066809  0.8090194953923318  0.9292619689219369  1.0000
  O   O11       1.0  0.8387839211854431  0.7796315600211525  0.15778069520305615  1.0000
  O   O12       1.0  0.3613029927363203  0.16165858186197676  0.7385527470392372  1.0000
data_image163
_chemical_formula_structural       Cd4S4O12
_chemical_formula_sum              "Cd4 S4 O12"
_cell_length_a       9.025715
_cell_length_b       4.573479000000001
_cell_length_c       7.283293351582442
_cell_angle_alpha    88.92985652425466
_cell_angle_beta     90.0
_cell_angle_gamma    90.0

_space_group_name_H-M_alt    "P 1"
_space_group_IT_number       1

loop_
  _space_group_symop_operation_xyz
  'x, y, z'

loop_
  _atom_site_type_symbol
  _atom_site_label
  _atom_site_symmetry_multiplicity
  _atom_site_fract_x
  _atom_site_fract_y
  _atom_site_fract_z
  _atom_site_occupancy
  Cd  Cd1       1.0  0.7379926984160844  0.45610335238969196  0.26574379013137855  1.0000
  Cd  Cd2       1.0  0.19454466906745174  0.32504177045211724  0.10856832338697335  1.0000
  Cd  Cd3       1.0  0.2755108404903248  0.7056289862861946  0.8132005051429579  1.0000
  Cd  Cd4       1.0  0.7253247047742208  0.7284051511061382  0.6691896733096547  1.0000
  S   S1        1.0  0.4879541801973422  0.18553318822939713  0.5406815246811241  1.0000
  S   S2        1.0  0.9305722219480694  0.9810382404640781  0.05169083942652281  1.0000
  S   S3        1.0  0.5594382617908166  0.06695213042465342  0.085783868217999  1.0000
  S   S4        1.0  0.059527056857384464  0.6848442596412743  0.5516625265754348  1.0000
  O   O1        1.0  0.12276540514035084  0.9022802773870824  0.043514386421239996  1.0000
  O   O2        1.0  0.5129387434141399  0.8619542507197926  0.5755725320832761  1.0000
  O   O3        1.0  0.8988924629646117  0.5442701945480719  0.5054702514340218  1.0000
  O   O4        1.0  0.8818212533830093  0.8083928993021234  0.8986703859307202  1.0000
  O   O5        1.0  0.6465382209580736  0.3350592167652351  0.5911811844159905  1.0000
  O   O6        1.0  0.9112075522563564  0.32407878103074406  0.011477476977906107  1.0000
  O   O7        1.0  0.393041126341582  0.15313934923233719  0.09149490101920965  1.0000
  O   O8        1.0  0.14173743353168722  0.595000137109406  0.3618133083477646  1.0000
  O   O9        1.0  0.010594946964121332  0.9877115941497796  0.5478810422809821  1.0000
  O   O10       1.0  0.5620304914761816  0.7800501183256514  0.9802928062852502  1.0000
  O   O11       1.0  0.8968063592912043  0.9323477671338618  0.24524853164003965  1.0000
  O   O12       1.0  0.40684624363029487  0.31015554247307264  0.6999159575441253  1.0000
data_image164
_chemical_formula_structural       Cd4S4O12
_chemical_formula_sum              "Cd4 S4 O12"
_cell_length_a       9.025715
_cell_length_b       4.573479000000001
_cell_length_c       7.283293351582442
_cell_angle_alpha    88.92985652425466
_cell_angle_beta     90.0
_cell_angle_gamma    90.0

_space_group_name_H-M_alt    "P 1"
_space_group_IT_number       1

loop_
  _space_group_symop_operation_xyz
  'x, y, z'

loop_
  _atom_site_type_symbol
  _atom_site_label
  _atom_site_symmetry_multiplicity
  _atom_site_fract_x
  _atom_site_fract_y
  _atom_site_fract_z
  _atom_site_occupancy
  Cd  Cd1       1.0  0.794941985117569  0.5001054844355537  0.24300978842214646  1.0000
  Cd  Cd2       1.0  0.19750584467909607  0.32306727371943345  0.17326085336703123  1.0000
  Cd  Cd3       1.0  0.2970695097338601  0.7772264155889191  0.8370407233510861  1.0000
  Cd  Cd4       1.0  0.6770460887373637  0.8116186733380546  0.6151484800667577  1.0000
  S   S1        1.0  0.4206739184730927  0.08125035228473684  0.5056033665025018  1.0000
  S   S2        1.0  0.9486236784195763  0.9799046998218223  0.03306164238775582  1.0000
  S   S3        1.0  0.5282571902366082  0.941256910509978  0.10404924295310325  1.0000
  S   S4        1.0  0.07683444953725282  0.5898872832831605  0.5744400331797108  1.0000
  O   O1        1.0  0.0832030579805696  0.8554697943775106  0.024716219212914777  1.0000
  O   O2        1.0  0.4392969246481552  0.7448373685356955  0.5349047131580812  1.0000
  O   O3        1.0  0.911154169272433  0.5349740658469718  0.5203337210349019  1.0000
  O   O4        1.0  0.8445840092954344  0.861037437904994  0.9217205948515158  1.0000
  O   O5        1.0  0.5881711051568783  0.23244159073330772  0.450425886782668  1.0000
  O   O6        1.0  0.969051300312016  0.34142172920258873  0.034708314549054056  1.0000
  O   O7        1.0  0.3321224818136719  0.9315153219231596  0.13129675138914876  1.0000
  O   O8        1.0  0.1908185115993275  0.5163940231914445  0.413599219848333  1.0000
  O   O9        1.0  0.09187001267358186  0.9071749169998006  0.5924886939376202  1.0000
  O   O10       1.0  0.5434171839034344  0.7400787541150275  0.9178551604493874  1.0000
  O   O11       1.0  0.9034084681606017  0.960004818265402  0.23468325423740163  1.0000
  O   O12       1.0  0.37976708569574635  0.18864683699153426  0.7122110078874142  1.0000
data_image165
_chemical_formula_structural       Cd4S4O12
_chemical_formula_sum              "Cd4 S4 O12"
_cell_length_a       9.025715
_cell_length_b       4.573479000000001
_cell_length_c       7.283293351582442
_cell_angle_alpha    88.92985652425466
_cell_angle_beta     90.0
_cell_angle_gamma    90.0

_space_group_name_H-M_alt    "P 1"
_space_group_IT_number       1

loop_
  _space_group_symop_operation_xyz
  'x, y, z'

loop_
  _atom_site_type_symbol
  _atom_site_label
  _atom_site_symmetry_multiplicity
  _atom_site_fract_x
  _atom_site_fract_y
  _atom_site_fract_z
  _atom_site_occupancy
  Cd  Cd1       1.0  0.7937198994648517  0.432416394895884  0.2425874160900694  1.0000
  Cd  Cd2       1.0  0.1988837958393255  0.27567683370547913  0.2429778577369086  1.0000
  Cd  Cd3       1.0  0.2826432976163666  0.82063020220246  0.8172253681119933  1.0000
  Cd  Cd4       1.0  0.6738386380479766  0.8227717675421498  0.5931170370739532  1.0000
  S   S1        1.0  0.4613208701206845  0.2289445129558986  0.4918397951573038  1.0000
  S   S2        1.0  0.9476385372947002  0.06790824830617903  0.005122481120885556  1.0000
  S   S3        1.0  0.5869158951287728  0.6644111411534053  0.10236804840084579  1.0000
  S   S4        1.0  0.028131765406109732  0.5908270242790188  0.581423093117892  1.0000
  O   O1        1.0  0.09919701672310688  0.934600506115717  0.999053058447736  1.0000
  O   O2        1.0  0.45851048833435537  0.9043058502828679  0.5201026915780502  1.0000
  O   O3        1.0  0.8650881011039118  0.5586878509977435  0.566124571132249  1.0000
  O   O4        1.0  0.8221029701903424  0.978634482276012  0.871524042341766  1.0000
  O   O5        1.0  0.6259033436516115  0.36259076981425276  0.46260859861757725  1.0000
  O   O6        1.0  0.9827730313626297  0.38315760315674496  0.9799323687503444  1.0000
  O   O7        1.0  0.44540988622199734  0.8410381701953041  0.12660777226291597  1.0000
  O   O8        1.0  0.07789811893263177  0.6481038887486376  0.3781508923799054  1.0000
  O   O9        1.0  0.06448569254495617  0.8970751078841606  0.6366010211810175  1.0000
  O   O10       1.0  0.5375465144820697  0.5087715296819912  0.9343627605935397  1.0000
  O   O11       1.0  0.9143680977417337  0.9616233976245263  0.22632725809903734  1.0000
  O   O12       1.0  0.4185681368292295  0.3151506456506  0.6698031861295254  1.0000
data_image166
_chemical_formula_structural       Cd4S4O12
_chemical_formula_sum              "Cd4 S4 O12"
_cell_length_a       9.025715
_cell_length_b       4.573479000000001
_cell_length_c       7.283293351582442
_cell_angle_alpha    88.92985652425466
_cell_angle_beta     90.0
_cell_angle_gamma    90.0

_space_group_name_H-M_alt    "P 1"
_space_group_IT_number       1

loop_
  _space_group_symop_operation_xyz
  'x, y, z'

loop_
  _atom_site_type_symbol
  _atom_site_label
  _atom_site_symmetry_multiplicity
  _atom_site_fract_x
  _atom_site_fract_y
  _atom_site_fract_z
  _atom_site_occupancy
  Cd  Cd1       1.0  0.7942167123293334  0.5125916531810965  0.26022778053321405  1.0000
  Cd  Cd2       1.0  0.21152722165762586  0.14317161332550132  0.28893941846005117  1.0000
  Cd  Cd3       1.0  0.2990464359943729  0.7702962780409472  0.7922501471529576  1.0000
  Cd  Cd4       1.0  0.6553094507887206  0.8428849647422932  0.6373779315540317  1.0000
  S   S1        1.0  0.44986140989809886  0.3113051381294404  0.45722521791948506  1.0000
  S   S2        1.0  0.9385247400708989  0.04689697003743248  0.019653516472734226  1.0000
  S   S3        1.0  0.5257641109432865  0.5906169187090842  0.045117708129403855  1.0000
  S   S4        1.0  0.0519840104828424  0.6457610637199734  0.5212416887965502  1.0000
  O   O1        1.0  0.12513330016608437  0.998035553174372  0.9924575041665386  1.0000
  O   O2        1.0  0.4592390473106646  0.9482901701334405  0.4400172914106704  1.0000
  O   O3        1.0  0.9064274577170295  0.8328669923619939  0.549838954290901  1.0000
  O   O4        1.0  0.8209287213311407  0.8312880572054558  0.9916162638834812  1.0000
  O   O5        1.0  0.6085594947981012  0.47462911271141284  0.4659119619682243  1.0000
  O   O6        1.0  0.9065679897969575  0.3496359593728656  0.9289960907305368  1.0000
  O   O7        1.0  0.4534717016619903  0.8635507510031476  0.11270391257261969  1.0000
  O   O8        1.0  0.08072364879270766  0.5585796857744704  0.32094839694644123  1.0000
  O   O9        1.0  0.1673905850538604  0.9211120055420263  0.5562815007830828  1.0000
  O   O10       1.0  0.5410273591766035  0.5576741995408536  0.8518378330756115  1.0000
  O   O11       1.0  0.9268430167358322  0.04606270560628873  0.21142755796627252  1.0000
  O   O12       1.0  0.35675802959377395  0.40088874953472237  0.63941387803795  1.0000
data_image167
_chemical_formula_structural       Cd4S4O12
_chemical_formula_sum              "Cd4 S4 O12"
_cell_length_a       9.025715
_cell_length_b       4.573479000000001
_cell_length_c       7.283293351582442
_cell_angle_alpha    88.92985652425466
_cell_angle_beta     90.0
_cell_angle_gamma    90.0

_space_group_name_H-M_alt    "P 1"
_space_group_IT_number       1

loop_
  _space_group_symop_operation_xyz
  'x, y, z'

loop_
  _atom_site_type_symbol
  _atom_site_label
  _atom_site_symmetry_multiplicity
  _atom_site_fract_x
  _atom_site_fract_y
  _atom_site_fract_z
  _atom_site_occupancy
  Cd  Cd1       1.0  0.8075597732700325  0.6210192438867004  0.23545987082905734  1.0000
  Cd  Cd2       1.0  0.21643016903961224  0.06405394233229712  0.27717397773870384  1.0000
  Cd  Cd3       1.0  0.27649252435612365  0.7327225725801846  0.7433014287434669  1.0000
  Cd  Cd4       1.0  0.6801589132828051  0.814086653983748  0.6725920520621039  1.0000
  S   S1        1.0  0.4736528416332898  0.2916982251205143  0.4753139548964556  1.0000
  S   S2        1.0  0.966122833733972  0.052937719481432055  0.004454639857018237  1.0000
  S   S3        1.0  0.5109254320707541  0.7586255993793161  0.08035272663127824  1.0000
  S   S4        1.0  0.03840650750917374  0.6673276042382217  0.5983413038112518  1.0000
  O   O1        1.0  0.10378207398783723  0.8345762194961532  0.9974225236872278  1.0000
  O   O2        1.0  0.4062005547141923  0.9683754536442387  0.44342359847508905  1.0000
  O   O3        1.0  0.8592828145277693  0.7300610359000398  0.5200912752671207  1.0000
  O   O4        1.0  0.7895065871943675  0.9564533436851402  0.03357551487361898  1.0000
  O   O5        1.0  0.6041432368967861  0.2694100301248752  0.6222220323466108  1.0000
  O   O6        1.0  0.9598711409865657  0.1763976702188701  0.8350648010742312  1.0000
  O   O7        1.0  0.33923151490473646  0.6766769116356687  0.10024696846755266  1.0000
  O   O8        1.0  0.09784033792174918  0.5279088191735326  0.4368847022585429  1.0000
  O   O9        1.0  0.13150581731474964  0.966603746905587  0.5680187460306034  1.0000
  O   O10       1.0  0.5335834306694283  0.8885117757965639  0.885152993233084  1.0000
  O   O11       1.0  0.01159830827110509  0.3197622773685887  0.16478703469878483  1.0000
  O   O12       1.0  0.3309795986509097  0.3725737251626803  0.5836654975964768  1.0000
data_image168
_chemical_formula_structural       Cd4S4O12
_chemical_formula_sum              "Cd4 S4 O12"
_cell_length_a       9.025715
_cell_length_b       4.573479000000001
_cell_length_c       7.283293351582442
_cell_angle_alpha    88.92985652425466
_cell_angle_beta     90.0
_cell_angle_gamma    90.0

_space_group_name_H-M_alt    "P 1"
_space_group_IT_number       1

loop_
  _space_group_symop_operation_xyz
  'x, y, z'

loop_
  _atom_site_type_symbol
  _atom_site_label
  _atom_site_symmetry_multiplicity
  _atom_site_fract_x
  _atom_site_fract_y
  _atom_site_fract_z
  _atom_site_occupancy
  Cd  Cd1       1.0  0.8062237520359158  0.5409851045345582  0.2374351230589887  1.0000
  Cd  Cd2       1.0  0.21321569615317687  0.020156522250992126  0.2483650985659536  1.0000
  Cd  Cd3       1.0  0.32030241864336945  0.8013353414771127  0.7848482591454772  1.0000
  Cd  Cd4       1.0  0.6776378450178209  0.8260063814986915  0.7402230394496025  1.0000
  S   S1        1.0  0.44699588070334595  0.32611521502772883  0.5012832459490171  1.0000
  S   S2        1.0  0.9524471953669778  0.08495825846493514  0.9187562261455869  1.0000
  S   S3        1.0  0.45905583124063853  0.8143586941500154  0.11386305002868613  1.0000
  S   S4        1.0  0.013495914839356526  0.6604281991850813  0.5355419674096206  1.0000
  O   O1        1.0  0.12198711330891765  0.012564189074974334  0.9237857472306641  1.0000
  O   O2        1.0  0.4502924153897722  0.9655411520457005  0.5171024050841134  1.0000
  O   O3        1.0  0.8608624231016953  0.8386296383594143  0.49297058502418867  1.0000
  O   O4        1.0  0.8184797464142579  0.841499894588218  0.0038762920794470634  1.0000
  O   O5        1.0  0.6013090490170874  0.3835377970321199  0.5494429966371904  1.0000
  O   O6        1.0  0.8733728050465095  0.18988519530134218  0.7286870648572094  1.0000
  O   O7        1.0  0.5121697675874886  0.4767285264316906  0.06439098631455864  1.0000
  O   O8        1.0  0.03056238784897558  0.4402882520512588  0.3770549881461144  1.0000
  O   O9        1.0  0.12044399275323947  0.9052705169953787  0.5061207505440587  1.0000
  O   O10       1.0  0.5102699271882748  0.979013313150636  0.950418576856783  1.0000
  O   O11       1.0  0.9376090952906232  0.3065204258109471  0.033025913641453186  1.0000
  O   O12       1.0  0.299740934050481  0.4167964501715619  0.6370118839061205  1.0000
data_image169
_chemical_formula_structural       Cd4S4O12
_chemical_formula_sum              "Cd4 S4 O12"
_cell_length_a       9.025715
_cell_length_b       4.573479000000001
_cell_length_c       7.283293351582442
_cell_angle_alpha    88.92985652425466
_cell_angle_beta     90.0
_cell_angle_gamma    90.0

_space_group_name_H-M_alt    "P 1"
_space_group_IT_number       1

loop_
  _space_group_symop_operation_xyz
  'x, y, z'

loop_
  _atom_site_type_symbol
  _atom_site_label
  _atom_site_symmetry_multiplicity
  _atom_site_fract_x
  _atom_site_fract_y
  _atom_site_fract_z
  _atom_site_occupancy
  Cd  Cd1       1.0  0.7722846380361266  0.5202218852656277  0.22967189214745665  1.0000
  Cd  Cd2       1.0  0.21606616736462983  0.17742944317455078  0.21291294072056263  1.0000
  Cd  Cd3       1.0  0.30566491074661695  0.8618704056231136  0.7826823291152912  1.0000
  Cd  Cd4       1.0  0.6960966365061177  0.7713402896496101  0.7041387475891769  1.0000
  S   S1        1.0  0.4241475120112684  0.3442550101884697  0.5517172514975976  1.0000
  S   S2        1.0  0.9311051966453187  0.04034868896665727  0.9323003778598311  1.0000
  S   S3        1.0  0.5037042207611657  0.7232799451890359  0.20090491532239652  1.0000
  S   S4        1.0  0.06251048678511295  0.5582456635619468  0.5365848601396739  1.0000
  O   O1        1.0  0.09138630894375255  0.890238815087453  0.9905574843967211  1.0000
  O   O2        1.0  0.480166373384098  0.02149078748102517  0.5167360013415122  1.0000
  O   O3        1.0  0.8734148695914434  0.5794716522318777  0.5073225281105537  1.0000
  O   O4        1.0  0.8001396073088539  0.8200609036001719  0.018040501358911998  1.0000
  O   O5        1.0  0.5704887854160657  0.4929117094313664  0.5800905658936025  1.0000
  O   O6        1.0  0.9169142100768423  0.011519645431565806  0.7456453519552784  1.0000
  O   O7        1.0  0.5012125305188947  0.4086679161485764  0.1314108552997435  1.0000
  O   O8        1.0  0.07202121429841402  0.44223533535377507  0.33698268195434583  1.0000
  O   O9        1.0  0.16406601625481332  0.8350332275204255  0.47545758116152187  1.0000
  O   O10       1.0  0.47158523955283616  0.9258499862318517  0.02361444285344816  1.0000
  O   O11       1.0  0.9379314678797077  0.39185542999061107  0.9770132941478301  1.0000
  O   O12       1.0  0.3524090722653312  0.3591084080841554  0.7535031095997792  1.0000
data_image170
_chemical_formula_structural       Cd4S4O12
_chemical_formula_sum              "Cd4 S4 O12"
_cell_length_a       9.025715
_cell_length_b       4.573479000000001
_cell_length_c       7.283293351582442
_cell_angle_alpha    88.92985652425466
_cell_angle_beta     90.0
_cell_angle_gamma    90.0

_space_group_name_H-M_alt    "P 1"
_space_group_IT_number       1

loop_
  _space_group_symop_operation_xyz
  'x, y, z'

loop_
  _atom_site_type_symbol
  _atom_site_label
  _atom_site_symmetry_multiplicity
  _atom_site_fract_x
  _atom_site_fract_y
  _atom_site_fract_z
  _atom_site_occupancy
  Cd  Cd1       1.0  0.7674254206992353  0.5044668262654324  0.23088594278391475  1.0000
  Cd  Cd2       1.0  0.2175080255516232  0.19407074525600498  0.2526411097949039  1.0000
  Cd  Cd3       1.0  0.263224093713084  0.8118660830905365  0.736712610763265  1.0000
  Cd  Cd4       1.0  0.7345072371392478  0.8066424878669208  0.7215326977212767  1.0000
  S   S1        1.0  0.4880806219852532  0.29011051834964274  0.5461875449473523  1.0000
  S   S2        1.0  0.9368996077881625  0.09364214159719092  0.9566570107371737  1.0000
  S   S3        1.0  0.5053384090671101  0.5642071413146372  0.11017229825798469  1.0000
  S   S4        1.0  0.03676623177880867  0.6375030769729162  0.5112729977817096  1.0000
  O   O1        1.0  0.0691028200302437  0.03445709308902378  0.06943826578274337  1.0000
  O   O2        1.0  0.5158012812237341  0.9560453813692392  0.602702119791625  1.0000
  O   O3        1.0  0.873721246035329  0.8138901582495734  0.4745582712550785  1.0000
  O   O4        1.0  0.7977230644592771  0.007140372989571819  0.03031482102200722  1.0000
  O   O5        1.0  0.6532839212843394  0.3860505262044662  0.5298411930520222  1.0000
  O   O6        1.0  0.9562217579159177  0.06716829230611343  0.7617130695715587  1.0000
  O   O7        1.0  0.44103607592895155  0.3144562713408802  0.16095579713780683  1.0000
  O   O8        1.0  0.015712392126293384  0.37777358414415635  0.35956304400633804  1.0000
  O   O9        1.0  0.17857693068698266  0.8129780607455781  0.4415107965860625  1.0000
  O   O10       1.0  0.39770680061205627  0.8170440122613372  0.027681858687128136  1.0000
  O   O11       1.0  0.8983376794795088  0.4580894756520728  0.9683257702187991  1.0000
  O   O12       1.0  0.4015415539361215  0.39834428664788424  0.732181142251056  1.0000
data_image171
_chemical_formula_structural       Cd4S4O12
_chemical_formula_sum              "Cd4 S4 O12"
_cell_length_a       9.025715
_cell_length_b       4.573479000000001
_cell_length_c       7.283293351582442
_cell_angle_alpha    88.92985652425466
_cell_angle_beta     90.0
_cell_angle_gamma    90.0

_space_group_name_H-M_alt    "P 1"
_space_group_IT_number       1

loop_
  _space_group_symop_operation_xyz
  'x, y, z'

loop_
  _atom_site_type_symbol
  _atom_site_label
  _atom_site_symmetry_multiplicity
  _atom_site_fract_x
  _atom_site_fract_y
  _atom_site_fract_z
  _atom_site_occupancy
  Cd  Cd1       1.0  0.7638295072669696  0.4831291253705061  0.21003907172064498  1.0000
  Cd  Cd2       1.0  0.211797964142279  0.18513710584400025  0.2723800916932767  1.0000
  Cd  Cd3       1.0  0.3148243442021888  0.7788628086955558  0.7626619088630446  1.0000
  Cd  Cd4       1.0  0.7279974803502792  0.8162595625642672  0.7009574762608197  1.0000
  S   S1        1.0  0.5340321705208153  0.28037155704943606  0.567841290331672  1.0000
  S   S2        1.0  0.941979941986367  0.10147981358793423  0.9433866989888403  1.0000
  S   S3        1.0  0.44769706836697143  0.6862365428979564  0.053717802518165714  1.0000
  S   S4        1.0  0.9915150315832021  0.6718899214679264  0.5096144635909899  1.0000
  O   O1        1.0  0.06934078963725332  0.023940818355555202  0.067521950330849  1.0000
  O   O2        1.0  0.5537990431770565  0.9452351648403711  0.5224313155024772  1.0000
  O   O3        1.0  0.8983423658000291  0.874680495651921  0.38990469125924304  1.0000
  O   O4        1.0  0.7746023806731938  0.9949024679407409  0.05479712315918772  1.0000
  O   O5        1.0  0.6428499707208258  0.3107467627332978  0.7339102166840837  1.0000
  O   O6        1.0  0.9670968247387398  0.03830717407083284  0.7610636970920415  1.0000
  O   O7        1.0  0.4196035610447966  0.3934967800353183  0.13345919880141577  1.0000
  O   O8        1.0  0.02673098395151552  0.4625962183933981  0.3745893703825451  1.0000
  O   O9        1.0  0.13431785592596812  0.8709823533555481  0.5245935306696311  1.0000
  O   O10       1.0  0.3056381292590411  0.9017336956652424  0.06669220411605847  1.0000
  O   O11       1.0  0.9071066423572921  0.43776767348361517  0.9629889957072242  1.0000
  O   O12       1.0  0.3550943924898809  0.2679319109860979  0.6290493568397643  1.0000
data_image172
_chemical_formula_structural       Cd4S4O12
_chemical_formula_sum              "Cd4 S4 O12"
_cell_length_a       9.025715
_cell_length_b       4.573479000000001
_cell_length_c       7.283293351582442
_cell_angle_alpha    88.92985652425466
_cell_angle_beta     90.0
_cell_angle_gamma    90.0

_space_group_name_H-M_alt    "P 1"
_space_group_IT_number       1

loop_
  _space_group_symop_operation_xyz
  'x, y, z'

loop_
  _atom_site_type_symbol
  _atom_site_label
  _atom_site_symmetry_multiplicity
  _atom_site_fract_x
  _atom_site_fract_y
  _atom_site_fract_z
  _atom_site_occupancy
  Cd  Cd1       1.0  0.7717626249318164  0.356158152259331  0.21061218491158004  1.0000
  Cd  Cd2       1.0  0.2589880914171816  0.2939165205520459  0.3038013551021735  1.0000
  Cd  Cd3       1.0  0.3176063094686557  0.8061418586348422  0.7224791814489551  1.0000
  Cd  Cd4       1.0  0.709849316343085  0.7931514363104805  0.7212605691269417  1.0000
  S   S1        1.0  0.4998788802913032  0.31786164632149394  0.579599110283023  1.0000
  S   S2        1.0  0.9294042838244451  0.19170927794934303  0.9152652045479982  1.0000
  S   S3        1.0  0.4359466072891308  0.7032168259692511  0.052228469650460685  1.0000
  S   S4        1.0  0.0023191940374198694  0.5661497901404892  0.49914999066794347  1.0000
  O   O1        1.0  0.03926038227964068  0.13722644680006246  0.050960330304964656  1.0000
  O   O2        1.0  0.49193233365549094  0.0049196386133223986  0.498523892533101  1.0000
  O   O3        1.0  0.873960552940728  0.7723841665516141  0.4580846591591475  1.0000
  O   O4        1.0  0.7752093894051705  0.9696414523774582  0.037181618903065594  1.0000
  O   O5        1.0  0.6122017599083464  0.2523478341594245  0.7286639077236087  1.0000
  O   O6        1.0  0.9969955275216448  0.044867935570415574  0.7629523974669757  1.0000
  O   O7        1.0  0.4580866590803441  0.5336491918977104  0.24685266372982206  1.0000
  O   O8        1.0  0.011160359372806905  0.3234238643373922  0.3558243799292488  1.0000
  O   O9        1.0  0.14801867447259176  0.7914591201520249  0.4478924315776754  1.0000
  O   O10       1.0  0.3204385991097863  0.9302109903635292  0.09169772099776785  1.0000
  O   O11       1.0  0.8498021271036637  0.5012064381579492  0.902360420477132  1.0000
  O   O12       1.0  0.3020196007654776  0.2714853954729161  0.617171618813317  1.0000
data_image173
_chemical_formula_structural       Cd4S4O12
_chemical_formula_sum              "Cd4 S4 O12"
_cell_length_a       9.025715
_cell_length_b       4.573479000000001
_cell_length_c       7.283293351582442
_cell_angle_alpha    88.92985652425466
_cell_angle_beta     90.0
_cell_angle_gamma    90.0

_space_group_name_H-M_alt    "P 1"
_space_group_IT_number       1

loop_
  _space_group_symop_operation_xyz
  'x, y, z'

loop_
  _atom_site_type_symbol
  _atom_site_label
  _atom_site_symmetry_multiplicity
  _atom_site_fract_x
  _atom_site_fract_y
  _atom_site_fract_z
  _atom_site_occupancy
  Cd  Cd1       1.0  0.7666433668406497  0.3612235938341024  0.2145050788698197  1.0000
  Cd  Cd2       1.0  0.2552196197791004  0.3193710547183085  0.25117577392411317  1.0000
  Cd  Cd3       1.0  0.2674887808221663  0.8529193174279283  0.6913696502290176  1.0000
  Cd  Cd4       1.0  0.6923175358941466  0.7637456604581496  0.7857146462003318  1.0000
  S   S1        1.0  0.5158365436187472  0.23501532853313079  0.5905504042895847  1.0000
  S   S2        1.0  0.9734137837449215  0.1796850036733145  0.9434336043502489  1.0000
  S   S3        1.0  0.4015292744747342  0.702731648604221  0.01593098736221399  1.0000
  S   S4        1.0  0.01958590805209237  0.6022046040843636  0.506776718593337  1.0000
  O   O1        1.0  0.10200027746910179  0.20743419850330855  0.03366755842375175  1.0000
  O   O2        1.0  0.4969105879879347  0.8816103380227158  0.6038848132458144  1.0000
  O   O3        1.0  0.8845620507987556  0.6461846889781871  0.3866317621761612  1.0000
  O   O4        1.0  0.829719997560299  0.9797317890072532  0.09649638252332404  1.0000
  O   O5        1.0  0.6406773627502962  0.2915029646575791  0.7302400427340335  1.0000
  O   O6        1.0  0.9967609600068105  0.9817029942006879  0.7860362476053946  1.0000
  O   O7        1.0  0.5330792308891926  0.5033951022577405  0.043755278782713125  1.0000
  O   O8        1.0  0.08756677103587651  0.3193288417985502  0.47573466584326807  1.0000
  O   O9        1.0  0.13440131497709884  0.8147503416404963  0.40789228135270156  1.0000
  O   O10       1.0  0.4010235066468698  0.9443872788372092  0.14171872365008564  1.0000
  O   O11       1.0  0.8853131688745816  0.44708411567565615  0.9185383434108619  1.0000
  O   O12       1.0  0.34794269049823395  0.30783630222682207  0.6677084566412901  1.0000
data_image174
_chemical_formula_structural       Cd4S4O12
_chemical_formula_sum              "Cd4 S4 O12"
_cell_length_a       9.025715
_cell_length_b       4.573479000000001
_cell_length_c       7.283293351582442
_cell_angle_alpha    88.92985652425466
_cell_angle_beta     90.0
_cell_angle_gamma    90.0

_space_group_name_H-M_alt    "P 1"
_space_group_IT_number       1

loop_
  _space_group_symop_operation_xyz
  'x, y, z'

loop_
  _atom_site_type_symbol
  _atom_site_label
  _atom_site_symmetry_multiplicity
  _atom_site_fract_x
  _atom_site_fract_y
  _atom_site_fract_z
  _atom_site_occupancy
  Cd  Cd1       1.0  0.7500232846506277  0.34224946343103807  0.24757470121060784  1.0000
  Cd  Cd2       1.0  0.22303133601615893  0.2955264053479604  0.20768242432937448  1.0000
  Cd  Cd3       1.0  0.2630582679317501  0.9578680418439859  0.7227911652038389  1.0000
  Cd  Cd4       1.0  0.6654336273727042  0.7296378500584779  0.7993745444815723  1.0000
  S   S1        1.0  0.565087319876677  0.18706960541371814  0.5402714936903034  1.0000
  S   S2        1.0  0.9727275974478502  0.18476756147425094  0.9220216273367401  1.0000
  S   S3        1.0  0.43072754904539856  0.7132386891946938  0.0698131468521428  1.0000
  S   S4        1.0  0.020141844578040802  0.5464542483494694  0.49210250905499875  1.0000
  O   O1        1.0  0.13948533940625296  0.05297699625734721  0.9879026381599993  1.0000
  O   O2        1.0  0.5049228479929313  0.895477937932347  0.6314664750388542  1.0000
  O   O3        1.0  0.9530852697701758  0.7141013144368018  0.33759691979148093  1.0000
  O   O4        1.0  0.8481584292902613  0.05509174238781234  0.010199735393730203  1.0000
  O   O5        1.0  0.6945295697927475  0.2459551241272422  0.6970332625324986  1.0000
  O   O6        1.0  0.9966907611831798  0.04491984506023505  0.7590276200708864  1.0000
  O   O7        1.0  0.5780344203383876  0.5938068227191974  0.09223922648870553  1.0000
  O   O8        1.0  0.010096746731114381  0.22510076283170097  0.4274612104700489  1.0000
  O   O9        1.0  0.17776396990427723  0.6736361251049267  0.48632304396920906  1.0000
  O   O10       1.0  0.41154506844007777  0.9624521362844864  0.17536175461225612  1.0000
  O   O11       1.0  0.9930892731883506  0.4741510066527804  0.9458775306845749  1.0000
  O   O12       1.0  0.4428534372243433  0.3815898605726333  0.5729534412180426  1.0000
data_image175
_chemical_formula_structural       Cd4S4O12
_chemical_formula_sum              "Cd4 S4 O12"
_cell_length_a       9.025715
_cell_length_b       4.573479000000001
_cell_length_c       7.283293351582442
_cell_angle_alpha    88.92985652425466
_cell_angle_beta     90.0
_cell_angle_gamma    90.0

_space_group_name_H-M_alt    "P 1"
_space_group_IT_number       1

loop_
  _space_group_symop_operation_xyz
  'x, y, z'

loop_
  _atom_site_type_symbol
  _atom_site_label
  _atom_site_symmetry_multiplicity
  _atom_site_fract_x
  _atom_site_fract_y
  _atom_site_fract_z
  _atom_site_occupancy
  Cd  Cd1       1.0  0.784139865191956  0.31361659857481183  0.22583441815352087  1.0000
  Cd  Cd2       1.0  0.21438973204426046  0.3831915754192498  0.20986765853300796  1.0000
  Cd  Cd3       1.0  0.25974603076502706  0.9247456464009878  0.7366167467856193  1.0000
  Cd  Cd4       1.0  0.6385155789267202  0.6479767863575119  0.8505049653799793  1.0000
  S   S1        1.0  0.5588746480735455  0.2762720700051152  0.5119725244768699  1.0000
  S   S2        1.0  0.008175252532429938  0.09230271701021081  0.9000220728812476  1.0000
  S   S3        1.0  0.4247367490890133  0.803996500930164  0.10319105058260702  1.0000
  S   S4        1.0  0.997070705160721  0.5015454329086663  0.5083603521877632  1.0000
  O   O1        1.0  0.0750626909739609  0.9153879184683874  0.08143619041498434  1.0000
  O   O2        1.0  0.48958249168057605  0.997344557766047  0.5927395256712626  1.0000
  O   O3        1.0  0.8565631890477501  0.6720982248751537  0.42642147861889673  1.0000
  O   O4        1.0  0.8445348023843979  0.09300277577102567  0.9544200074393658  1.0000
  O   O5        1.0  0.7062212818602144  0.3734493536650374  0.6173344570475994  1.0000
  O   O6        1.0  0.02180967990171969  0.9242976107184997  0.7449667291118605  1.0000
  O   O7        1.0  0.6473514185167997  0.7410473294680168  0.10676955782312114  1.0000
  O   O8        1.0  0.008113989759204188  0.2260073595888217  0.39252715659027043  1.0000
  O   O9        1.0  0.16035294034409908  0.6176293630393165  0.44729269354874673  1.0000
  O   O10       1.0  0.4308347995114536  0.1912128607630592  0.04639175214200342  1.0000
  O   O11       1.0  0.09639647183148371  0.3731118341994941  0.8714680911571896  1.0000
  O   O12       1.0  0.44592437643440613  0.49727945587180356  0.5258659362278449  1.0000
data_image176
_chemical_formula_structural       Cd4S4O12
_chemical_formula_sum              "Cd4 S4 O12"
_cell_length_a       9.025715
_cell_length_b       4.573479000000001
_cell_length_c       7.283293351582442
_cell_angle_alpha    88.92985652425466
_cell_angle_beta     90.0
_cell_angle_gamma    90.0

_space_group_name_H-M_alt    "P 1"
_space_group_IT_number       1

loop_
  _space_group_symop_operation_xyz
  'x, y, z'

loop_
  _atom_site_type_symbol
  _atom_site_label
  _atom_site_symmetry_multiplicity
  _atom_site_fract_x
  _atom_site_fract_y
  _atom_site_fract_z
  _atom_site_occupancy
  Cd  Cd1       1.0  0.7883576122141379  0.3347728940413219  0.21969486769762298  1.0000
  Cd  Cd2       1.0  0.20167077117324483  0.4834835683915316  0.21981751694283108  1.0000
  Cd  Cd3       1.0  0.28127707650729433  0.7368030180345019  0.7042092596917047  1.0000
  Cd  Cd4       1.0  0.6373456798344497  0.5857257114189401  0.8309219439616583  1.0000
  S   S1        1.0  0.5401526737626255  0.3036908653402594  0.5165752232109544  1.0000
  S   S2        1.0  0.04944676849199289  0.10138004864222216  0.9682608518769495  1.0000
  S   S3        1.0  0.4540786681263131  0.772358010782455  0.07242467314106693  1.0000
  S   S4        1.0  0.9566165507355588  0.633993086774316  0.47990621494800995  1.0000
  O   O1        1.0  0.08108005352897485  0.983051645917657  0.14204579538860612  1.0000
  O   O2        1.0  0.42476623190707935  0.1638091165736223  0.6731896591315848  1.0000
  O   O3        1.0  0.8700345909766601  0.8197226973856725  0.3512803325782063  1.0000
  O   O4        1.0  0.8603069123662291  0.09221071471034414  0.9638740468408529  1.0000
  O   O5        1.0  0.6982959436444205  0.2780950804366613  0.6192053636720258  1.0000
  O   O6        1.0  0.08856363869356162  0.9009909331513144  0.8229081210053802  1.0000
  O   O7        1.0  0.6209399195517092  0.8299215607160554  0.16394294885873517  1.0000
  O   O8        1.0  0.9648716345907073  0.3341465832048371  0.39577224111952447  1.0000
  O   O9        1.0  0.12518400604820834  0.7719347989579057  0.44112195799187975  1.0000
  O   O10       1.0  0.3391343755446459  0.008317747575028456  0.05942723940252681  1.0000
  O   O11       1.0  0.10669639707227281  0.4199612244970987  0.9409902895159598  1.0000
  O   O12       1.0  0.49588187995373817  0.6406255765126789  0.5404417631326289  1.0000
data_image177
_chemical_formula_structural       Cd4S4O12
_chemical_formula_sum              "Cd4 S4 O12"
_cell_length_a       9.025715
_cell_length_b       4.573479000000001
_cell_length_c       7.283293351582442
_cell_angle_alpha    88.92985652425466
_cell_angle_beta     90.0
_cell_angle_gamma    90.0

_space_group_name_H-M_alt    "P 1"
_space_group_IT_number       1

loop_
  _space_group_symop_operation_xyz
  'x, y, z'

loop_
  _atom_site_type_symbol
  _atom_site_label
  _atom_site_symmetry_multiplicity
  _atom_site_fract_x
  _atom_site_fract_y
  _atom_site_fract_z
  _atom_site_occupancy
  Cd  Cd1       1.0  0.7641704786214681  0.2084016525970676  0.2342306777513366  1.0000
  Cd  Cd2       1.0  0.18113872710251047  0.4881403519735966  0.25561291296348  1.0000
  Cd  Cd3       1.0  0.29110198587460284  0.7175908830227545  0.687697655852806  1.0000
  Cd  Cd4       1.0  0.62320324373895  0.646175132373806  0.7886463002347477  1.0000
  S   S1        1.0  0.5465810915939479  0.23662109220482933  0.47593192624982483  1.0000
  S   S2        1.0  0.05305407580174104  0.2844046301010324  0.9514705081179761  1.0000
  S   S3        1.0  0.5185236095660863  0.60983156128039  0.12659968950828615  1.0000
  S   S4        1.0  0.9478163430063247  0.7078532824689514  0.5077436115946646  1.0000
  O   O1        1.0  0.08934225513124461  0.12724482684705407  0.13737926319709973  1.0000
  O   O2        1.0  0.3937114138819085  0.14963260143705293  0.6057076137970313  1.0000
  O   O3        1.0  0.8743706610046171  0.912603173297078  0.402017928840355  1.0000
  O   O4        1.0  0.8965016026662149  0.3834121349312123  0.948396928503713  1.0000
  O   O5        1.0  0.6736149450955707  0.22606722754763897  0.6389981463006941  1.0000
  O   O6        1.0  0.10293533862046786  0.06940590642232769  0.7821930602885963  1.0000
  O   O7        1.0  0.6946629199875963  0.6879176810569199  0.18955454221582846  1.0000
  O   O8        1.0  0.9647683203708987  0.42384212787138753  0.3992005404606362  1.0000
  O   O9        1.0  0.13213685732796332  0.7922400609007606  0.43907848224670665  1.0000
  O   O10       1.0  0.40771621085540244  0.8697103399468364  0.1921810668868016  1.0000
  O   O11       1.0  0.1554946442087432  0.5472068208543395  0.9164225173627022  1.0000
  O   O12       1.0  0.49434458976237544  0.5514930626824055  0.48073540266257575  1.0000
data_image178
_chemical_formula_structural       Cd4S4O12
_chemical_formula_sum              "Cd4 S4 O12"
_cell_length_a       9.025715
_cell_length_b       4.573479000000001
_cell_length_c       7.283293351582442
_cell_angle_alpha    88.92985652425466
_cell_angle_beta     90.0
_cell_angle_gamma    90.0

_space_group_name_H-M_alt    "P 1"
_space_group_IT_number       1

loop_
  _space_group_symop_operation_xyz
  'x, y, z'

loop_
  _atom_site_type_symbol
  _atom_site_label
  _atom_site_symmetry_multiplicity
  _atom_site_fract_x
  _atom_site_fract_y
  _atom_site_fract_z
  _atom_site_occupancy
  Cd  Cd1       1.0  0.7599420417290695  0.12474799933417943  0.20596126651058982  1.0000
  Cd  Cd2       1.0  0.17529843177577037  0.5282565487071637  0.2673042941906654  1.0000
  Cd  Cd3       1.0  0.27625756628647097  0.7496531251397307  0.7142404305376902  1.0000
  Cd  Cd4       1.0  0.6496021565525812  0.7227258760688885  0.7848017051808056  1.0000
  S   S1        1.0  0.5659759432601789  0.25249224315279806  0.5295945017390256  1.0000
  S   S2        1.0  0.07977154852619867  0.24353569486124138  0.9235469884486911  1.0000
  S   S3        1.0  0.5194348876216338  0.5076360807053752  0.06604762126592112  1.0000
  S   S4        1.0  0.8971674309877039  0.6022627682314992  0.5276450292466414  1.0000
  O   O1        1.0  0.1323235995675518  0.05991158328564858  0.08349781624414106  1.0000
  O   O2        1.0  0.4071026697478705  0.22257777092986594  0.5456266870052066  1.0000
  O   O3        1.0  0.8515070689787081  0.9354524337017756  0.512141395545968  1.0000
  O   O4        1.0  0.9477671783261498  0.41844993225317006  0.9607059339669459  1.0000
  O   O5        1.0  0.6332042992473778  0.24717523541853215  0.7725949546480064  1.0000
  O   O6        1.0  0.09384105243709498  0.1109791232672025  0.7260673429739797  1.0000
  O   O7        1.0  0.6833679166475506  0.7176299493818556  0.08633808623529049  1.0000
  O   O8        1.0  0.858154917617753  0.5028824710105382  0.3372220992045737  1.0000
  O   O9        1.0  0.07280174768559022  0.7080156140290663  0.4869943313806541  1.0000
  O   O10       1.0  0.38609162136752884  0.728775971383218  0.15960787948670552  1.0000
  O   O11       1.0  0.1970850556268652  0.5201410357477037  0.9414859348765454  1.0000
  O   O12       1.0  0.608828930396495  0.58638805960757  0.5059840579262411  1.0000
data_image179
_chemical_formula_structural       Cd4S4O12
_chemical_formula_sum              "Cd4 S4 O12"
_cell_length_a       9.025715
_cell_length_b       4.573479000000001
_cell_length_c       7.283293351582442
_cell_angle_alpha    88.92985652425466
_cell_angle_beta     90.0
_cell_angle_gamma    90.0

_space_group_name_H-M_alt    "P 1"
_space_group_IT_number       1

loop_
  _space_group_symop_operation_xyz
  'x, y, z'

loop_
  _atom_site_type_symbol
  _atom_site_label
  _atom_site_symmetry_multiplicity
  _atom_site_fract_x
  _atom_site_fract_y
  _atom_site_fract_z
  _atom_site_occupancy
  Cd  Cd1       1.0  0.7668771611517009  0.005965728806362871  0.17254060584555667  1.0000
  Cd  Cd2       1.0  0.19583783957433915  0.6463158817424796  0.2504157459652176  1.0000
  Cd  Cd3       1.0  0.2997787531951052  0.7608562530946014  0.6538119809176619  1.0000
  Cd  Cd4       1.0  0.6700807269055181  0.7059493452805612  0.7630541273737295  1.0000
  S   S1        1.0  0.4753673884452929  0.25301863928888896  0.5654392632670704  1.0000
  S   S2        1.0  0.07523295336862852  0.22056493848446845  0.00472779205577165  1.0000
  S   S3        1.0  0.5157918744028083  0.5626790040427969  0.21715196033175466  1.0000
  S   S4        1.0  0.9296192417504351  0.6278319504621224  0.49560092492961066  1.0000
  O   O1        1.0  0.11984708333209393  0.18748872570250255  0.19953675375115598  1.0000
  O   O2        1.0  0.31748237391882556  0.30333711867313295  0.5580506217199842  1.0000
  O   O3        1.0  0.8239141608418493  0.8462822801523022  0.5851974243736235  1.0000
  O   O4        1.0  0.9053529852838303  0.2773873218858738  0.9771129118558792  1.0000
  O   O5        1.0  0.517220203870049  0.13718017513601666  0.7520836875820035  1.0000
  O   O6        1.0  0.12421730225830487  0.9749607537366651  0.8813588004053347  1.0000
  O   O7        1.0  0.541605792935881  0.7186222082969476  0.029129824467730492  1.0000
  O   O8        1.0  0.9413830385413405  0.7081122042771723  0.2511750676051775  1.0000
  O   O9        1.0  0.08330476951429588  0.6814178413794623  0.5400607592848056  1.0000
  O   O10       1.0  0.41426869005333367  0.8087132571951665  0.2752055663201507  1.0000
  O   O11       1.0  0.17664129997886394  0.47024319507034107  0.953803314699202  1.0000
  O   O12       1.0  0.5367569393395286  0.5728040596827338  0.5652093872161267  1.0000
data_image180
_chemical_formula_structural       Cd4S4O12
_chemical_formula_sum              "Cd4 S4 O12"
_cell_length_a       9.025715
_cell_length_b       4.573479000000001
_cell_length_c       7.283293351582442
_cell_angle_alpha    88.92985652425466
_cell_angle_beta     90.0
_cell_angle_gamma    90.0

_space_group_name_H-M_alt    "P 1"
_space_group_IT_number       1

loop_
  _space_group_symop_operation_xyz
  'x, y, z'

loop_
  _atom_site_type_symbol
  _atom_site_label
  _atom_site_symmetry_multiplicity
  _atom_site_fract_x
  _atom_site_fract_y
  _atom_site_fract_z
  _atom_site_occupancy
  Cd  Cd1       1.0  0.7633587446398078  0.004218731547149427  0.17573536770187154  1.0000
  Cd  Cd2       1.0  0.16565870424426193  0.7587209686927033  0.1872738310095564  1.0000
  Cd  Cd3       1.0  0.2657171266859593  0.6441057522897192  0.6715615377270439  1.0000
  Cd  Cd4       1.0  0.7149657135232463  0.7437370156757159  0.8239633448957774  1.0000
  S   S1        1.0  0.527747261752484  0.2894579981390626  0.5685915320910364  1.0000
  S   S2        1.0  0.08772045350964769  0.206437214939819  0.9696551175673475  1.0000
  S   S3        1.0  0.5009262823906441  0.6376674975896399  0.21642836956005218  1.0000
  S   S4        1.0  0.9404962263740212  0.566715069837368  0.5068585713214862  1.0000
  O   O1        1.0  0.10086462470784396  0.3038019089277203  0.1563261810968144  1.0000
  O   O2        1.0  0.36162769622124646  0.23916153532598017  0.5299544824065868  1.0000
  O   O3        1.0  0.8434187604753961  0.8275616310995736  0.5549886769486739  1.0000
  O   O4        1.0  0.926892211047159  0.10921753866099526  0.9566750170238388  1.0000
  O   O5        1.0  0.6015055869093311  0.13380217283608498  0.7661973188260557  1.0000
  O   O6        1.0  0.1728004887752746  0.9283923212586696  0.9185532209863275  1.0000
  O   O7        1.0  0.5171268144806126  0.5843485954389503  0.0022763919395631937  1.0000
  O   O8        1.0  0.8778371514194985  0.48296034654033215  0.3232419068389085  1.0000
  O   O9        1.0  0.09593493372674256  0.8207415829165507  0.5045196846618011  1.0000
  O   O10       1.0  0.405548354711817  0.9112789844095257  0.25028988845941647  1.0000
  O   O11       1.0  0.11779864474224673  0.4555655886968338  0.8571281049561559  1.0000
  O   O12       1.0  0.5149502223147024  0.5986174139017094  0.6506790125434033  1.0000
data_image181
_chemical_formula_structural       Cd4S4O12
_chemical_formula_sum              "Cd4 S4 O12"
_cell_length_a       9.025715
_cell_length_b       4.573479000000001
_cell_length_c       7.283293351582442
_cell_angle_alpha    88.92985652425466
_cell_angle_beta     90.0
_cell_angle_gamma    90.0

_space_group_name_H-M_alt    "P 1"
_space_group_IT_number       1

loop_
  _space_group_symop_operation_xyz
  'x, y, z'

loop_
  _atom_site_type_symbol
  _atom_site_label
  _atom_site_symmetry_multiplicity
  _atom_site_fract_x
  _atom_site_fract_y
  _atom_site_fract_z
  _atom_site_occupancy
  Cd  Cd1       1.0  0.7556484141683535  0.03943962550167935  0.1957133152407677  1.0000
  Cd  Cd2       1.0  0.19402161243822774  0.7192348163721619  0.19941457112339006  1.0000
  Cd  Cd3       1.0  0.2833901303736019  0.6257414608685126  0.698712285080708  1.0000
  Cd  Cd4       1.0  0.7282879405396587  0.7303617960075636  0.887197617970065  1.0000
  S   S1        1.0  0.549928602684741  0.3344034801824852  0.5303432842545948  1.0000
  S   S2        1.0  0.03696894238098593  0.20408234570458553  0.9134267564543915  1.0000
  S   S3        1.0  0.4681855425814043  0.6668802734326147  0.1845666162092916  1.0000
  S   S4        1.0  0.9009221512713237  0.5660553751769815  0.47755309147608105  1.0000
  O   O1        1.0  0.1183064700612495  0.26846501379017457  0.08520616458420552  1.0000
  O   O2        1.0  0.4168097967163643  0.208864395724208  0.6354269165924225  1.0000
  O   O3        1.0  0.8432015747389945  0.8436443161231806  0.5433208673947528  1.0000
  O   O4        1.0  0.9630870404849923  0.9450949976152618  0.9737272712972014  1.0000
  O   O5        1.0  0.6778705795222464  0.3724590362898452  0.6877269640884193  1.0000
  O   O6        1.0  0.1323630347834195  0.09813299656191143  0.7538355115459896  1.0000
  O   O7        1.0  0.519332388728753  0.5467633586738275  0.9961083726516772  1.0000
  O   O8        1.0  0.8322646195487666  0.5096531859915616  0.2770433492656594  1.0000
  O   O9        1.0  0.049596929542246704  0.6342555143774918  0.45537846946029875  1.0000
  O   O10       1.0  0.4096016880584339  0.9915230806618534  0.15380580911143715  1.0000
  O   O11       1.0  0.9177387883440798  0.4074429979226775  0.8538647745049661  1.0000
  O   O12       1.0  0.4938963495555163  0.6749533591064167  0.5113662139002277  1.0000
data_image182
_chemical_formula_structural       Cd4S4O12
_chemical_formula_sum              "Cd4 S4 O12"
_cell_length_a       9.025715
_cell_length_b       4.573479000000001
_cell_length_c       7.283293351582442
_cell_angle_alpha    88.92985652425466
_cell_angle_beta     90.0
_cell_angle_gamma    90.0

_space_group_name_H-M_alt    "P 1"
_space_group_IT_number       1

loop_
  _space_group_symop_operation_xyz
  'x, y, z'

loop_
  _atom_site_type_symbol
  _atom_site_label
  _atom_site_symmetry_multiplicity
  _atom_site_fract_x
  _atom_site_fract_y
  _atom_site_fract_z
  _atom_site_occupancy
  Cd  Cd1       1.0  0.7616640667134243  0.13595681862537876  0.2482658734735897  1.0000
  Cd  Cd2       1.0  0.1718136201935123  0.763569359893094  0.18562934650895382  1.0000
  Cd  Cd3       1.0  0.2682466897529251  0.5356684782663712  0.6736522720801905  1.0000
  Cd  Cd4       1.0  0.7186526490491576  0.7682337624044288  0.875026067696425  1.0000
  S   S1        1.0  0.5554572586529412  0.31708064160676513  0.556705072469731  1.0000
  S   S2        1.0  0.05699601058869561  0.10570629584162514  0.9102283388287342  1.0000
  S   S3        1.0  0.49026701411343226  0.714654637948315  0.10709922838539554  1.0000
  S   S4        1.0  0.9345058743566896  0.5529939408657063  0.5264458491708506  1.0000
  O   O1        1.0  0.17067636195485902  0.2583848274286158  0.04356486993753597  1.0000
  O   O2        1.0  0.3930332036739987  0.16320114167620275  0.5651994660207581  1.0000
  O   O3        1.0  0.8230052953624467  0.7835944398712984  0.5479298587755701  1.0000
  O   O4        1.0  0.9861305655503452  0.8336982193469421  0.021978464277107923  1.0000
  O   O5        1.0  0.6584911574677966  0.19005466176635966  0.7142452460124092  1.0000
  O   O6        1.0  0.14335475047826857  0.026301536149440197  0.7358239353413407  1.0000
  O   O7        1.0  0.41653439192079306  0.6921432164294603  0.9148402891381348  1.0000
  O   O8        1.0  0.8996541391514846  0.45079688733580503  0.29638829551079054  1.0000
  O   O9        1.0  0.09008160262525178  0.6688082116398724  0.5035427141858552  1.0000
  O   O10       1.0  0.4650560657715132  0.03371486548986535  0.16805635866365898  1.0000
  O   O11       1.0  0.9259886721883076  0.28297243574181496  0.8615626075552236  1.0000
  O   O12       1.0  0.5197071438345547  0.6676390091835245  0.552384548447179  1.0000
data_image183
_chemical_formula_structural       Cd4S4O12
_chemical_formula_sum              "Cd4 S4 O12"
_cell_length_a       9.025715
_cell_length_b       4.573479000000001
_cell_length_c       7.283293351582442
_cell_angle_alpha    88.92985652425466
_cell_angle_beta     90.0
_cell_angle_gamma    90.0

_space_group_name_H-M_alt    "P 1"
_space_group_IT_number       1

loop_
  _space_group_symop_operation_xyz
  'x, y, z'

loop_
  _atom_site_type_symbol
  _atom_site_label
  _atom_site_symmetry_multiplicity
  _atom_site_fract_x
  _atom_site_fract_y
  _atom_site_fract_z
  _atom_site_occupancy
  Cd  Cd1       1.0  0.7328419937819407  0.13112029222720342  0.2796091668050019  1.0000
  Cd  Cd2       1.0  0.15412866173576048  0.7337382947065653  0.21741292807258722  1.0000
  Cd  Cd3       1.0  0.29414504538548286  0.5645587824739767  0.6860844186246029  1.0000
  Cd  Cd4       1.0  0.764666868805885  0.8023797957976716  0.8418914309206955  1.0000
  S   S1        1.0  0.559531101938656  0.21863524145821475  0.5386608628617918  1.0000
  S   S2        1.0  0.032272166671574544  0.23636540978123532  0.9145990933559032  1.0000
  S   S3        1.0  0.4031945186536019  0.6587359415324088  0.08407313213564738  1.0000
  S   S4        1.0  0.9368981465251507  0.4941970011409528  0.4631984446041197  1.0000
  O   O1        1.0  0.1491185454298063  0.3157556072396768  0.06245604179247593  1.0000
  O   O2        1.0  0.3859576671404185  0.22611821287372816  0.497292566550727  1.0000
  O   O3        1.0  0.8760411308554621  0.7788088197404454  0.554340404350332  1.0000
  O   O4        1.0  0.9388937143706428  0.9723058674500603  0.008632263580117039  1.0000
  O   O5        1.0  0.5861062415746621  0.1399941943668359  0.7473957057661613  1.0000
  O   O6        1.0  0.11102400274180389  0.13274611244922774  0.7596372123978916  1.0000
  O   O7        1.0  0.3389700543718867  0.8145969717679623  0.9015497150293469  1.0000
  O   O8        1.0  0.9102875528047655  0.4387596818857653  0.2694626491789361  1.0000
  O   O9        1.0  0.10960008008749211  0.5173322291666059  0.48654848395899697  1.0000
  O   O10       1.0  0.5542825924124264  0.7496637560335964  0.1571721557389243  1.0000
  O   O11       1.0  0.9120379490969641  0.4451862129978152  0.8761288895148283  1.0000
  O   O12       1.0  0.648191567293446  0.49457512676088355  0.5083689307022111  1.0000
data_image184
_chemical_formula_structural       Cd4S4O12
_chemical_formula_sum              "Cd4 S4 O12"
_cell_length_a       9.025715
_cell_length_b       4.573479000000001
_cell_length_c       7.283293351582442
_cell_angle_alpha    88.92985652425466
_cell_angle_beta     90.0
_cell_angle_gamma    90.0

_space_group_name_H-M_alt    "P 1"
_space_group_IT_number       1

loop_
  _space_group_symop_operation_xyz
  'x, y, z'

loop_
  _atom_site_type_symbol
  _atom_site_label
  _atom_site_symmetry_multiplicity
  _atom_site_fract_x
  _atom_site_fract_y
  _atom_site_fract_z
  _atom_site_occupancy
  Cd  Cd1       1.0  0.6709262380865955  0.08896186168860508  0.2195918648053896  1.0000
  Cd  Cd2       1.0  0.12594321385760154  0.7132293644977639  0.17855526386349432  1.0000
  Cd  Cd3       1.0  0.287065390701037  0.5851576837955297  0.7094356066570552  1.0000
  Cd  Cd4       1.0  0.7915785748580689  0.8062233789639492  0.8299782728699312  1.0000
  S   S1        1.0  0.5978112238176632  0.267787428207331  0.6316054260801648  1.0000
  S   S2        1.0  0.042688962341318325  0.14088834245627815  0.9333762441914915  1.0000
  S   S3        1.0  0.5029678301576007  0.6520472650198532  0.14531220463988292  1.0000
  S   S4        1.0  0.9292131277860711  0.6854414709420664  0.4863275747386145  1.0000
  O   O1        1.0  0.2011837008848376  0.24174147182865402  0.944669230156427  1.0000
  O   O2        1.0  0.46661646111599303  0.16952244999932145  0.5234942865343755  1.0000
  O   O3        1.0  0.838455473173177  0.9810491350813775  0.4977859278807644  1.0000
  O   O4        1.0  0.9806686822847122  0.1121979667921349  0.11470433743739483  1.0000
  O   O5        1.0  0.6120710817561946  0.1307417857962052  0.8395103085066551  1.0000
  O   O6        1.0  0.05444486068456306  0.8519498488323047  0.8367424262338109  1.0000
  O   O7        1.0  0.3972904412203958  0.7191055237070106  0.9973393131853286  1.0000
  O   O8        1.0  0.8516148112552684  0.5540295996047134  0.3056647538113474  1.0000
  O   O9        1.0  0.14826450673260005  0.8083462037330831  0.4715939902401301  1.0000
  O   O10       1.0  0.6412326220431859  0.5230811810988194  0.055397534360611456  1.0000
  O   O11       1.0  0.9470931915434811  0.34267006510704967  0.8205644997688434  1.0000
  O   O12       1.0  0.5913274282301072  0.5837672535456169  0.6442286670553508  1.0000
data_image185
_chemical_formula_structural       Cd4S4O12
_chemical_formula_sum              "Cd4 S4 O12"
_cell_length_a       9.025715
_cell_length_b       4.573479000000001
_cell_length_c       7.283293351582442
_cell_angle_alpha    88.92985652425466
_cell_angle_beta     90.0
_cell_angle_gamma    90.0

_space_group_name_H-M_alt    "P 1"
_space_group_IT_number       1

loop_
  _space_group_symop_operation_xyz
  'x, y, z'

loop_
  _atom_site_type_symbol
  _atom_site_label
  _atom_site_symmetry_multiplicity
  _atom_site_fract_x
  _atom_site_fract_y
  _atom_site_fract_z
  _atom_site_occupancy
  Cd  Cd1       1.0  0.6778113035216061  0.06548919910897164  0.2208946176938425  1.0000
  Cd  Cd2       1.0  0.12627407215226852  0.5330746212775503  0.1807588123256164  1.0000
  Cd  Cd3       1.0  0.2870673274256202  0.6642381448560291  0.6927025447021676  1.0000
  Cd  Cd4       1.0  0.7739505376650856  0.7710135506563344  0.8273413121599555  1.0000
  S   S1        1.0  0.5928172038073894  0.3552265870286851  0.6210847460293228  1.0000
  S   S2        1.0  0.052032416893762624  0.15856554900090397  0.907366802248958  1.0000
  S   S3        1.0  0.4785424405076469  0.653205355596495  0.19848506085148454  1.0000
  S   S4        1.0  0.9505142279315086  0.8780855585386321  0.47599137003639563  1.0000
  O   O1        1.0  0.20641157664337806  0.23162622232190877  0.8431026835628722  1.0000
  O   O2        1.0  0.4256709204189177  0.24599002907708145  0.5891660296013095  1.0000
  O   O3        1.0  0.9539457515026531  0.19719869057809275  0.4512237791022679  1.0000
  O   O4        1.0  0.04045687228105144  0.1544802925205635  0.10883501144017771  1.0000
  O   O5        1.0  0.6662802382729353  0.21876616528595938  0.7868841387914398  1.0000
  O   O6        1.0  0.03973835749812582  0.8285587081960135  0.8545321100006168  1.0000
  O   O7        1.0  0.35393207455122283  0.6674387766527365  0.03919454879214279  1.0000
  O   O8        1.0  0.8812911559331649  0.7101690750777387  0.32620723175332994  1.0000
  O   O9        1.0  0.12035183224659018  0.7815349152481501  0.4696039963868224  1.0000
  O   O10       1.0  0.6449681567851439  0.5222579705996921  0.12344728887361156  1.0000
  O   O11       1.0  0.9202379625998178  0.32029729460408585  0.84161507942714  1.0000
  O   O12       1.0  0.5440639459242526  0.6606561507305662  0.7201608690506656  1.0000
data_image186
_chemical_formula_structural       Cd4S4O12
_chemical_formula_sum              "Cd4 S4 O12"
_cell_length_a       9.025715
_cell_length_b       4.573479000000001
_cell_length_c       7.283293351582442
_cell_angle_alpha    88.92985652425466
_cell_angle_beta     90.0
_cell_angle_gamma    90.0

_space_group_name_H-M_alt    "P 1"
_space_group_IT_number       1

loop_
  _space_group_symop_operation_xyz
  'x, y, z'

loop_
  _atom_site_type_symbol
  _atom_site_label
  _atom_site_symmetry_multiplicity
  _atom_site_fract_x
  _atom_site_fract_y
  _atom_site_fract_z
  _atom_site_occupancy
  Cd  Cd1       1.0  0.6917408446100727  0.14167633628935095  0.23802045867593943  1.0000
  Cd  Cd2       1.0  0.0963515075763794  0.582699361163252  0.24585793698049083  1.0000
  Cd  Cd3       1.0  0.2705594376611247  0.6968620189484819  0.6645756153670892  1.0000
  Cd  Cd4       1.0  0.7908873920903916  0.6621039072992446  0.8012308150965717  1.0000
  S   S1        1.0  0.5313460930164289  0.26265895187291677  0.5603176718759284  1.0000
  S   S2        1.0  0.05754081861719174  0.024419419950390393  0.9552742232878111  1.0000
  S   S3        1.0  0.4932058946891356  0.6551206941929713  0.11784234757031431  1.0000
  S   S4        1.0  0.9948461748105425  0.015772261474507693  0.5452204557286319  1.0000
  O   O1        1.0  0.1609072755444938  0.1292459107780665  0.8123998941414411  1.0000
  O   O2        1.0  0.37574293420028804  0.3376736313476242  0.5177404444568483  1.0000
  O   O3        1.0  0.983611417781135  0.37568756650622903  0.5648894315069407  1.0000
  O   O4        1.0  0.11318434501768815  0.15080129835864153  0.11741964429587526  1.0000
  O   O5        1.0  0.5779355016314214  0.04862843900025671  0.7035628807455704  1.0000
  O   O6        1.0  0.06874825561919604  0.7154998248550224  0.9451365794694966  1.0000
  O   O7        1.0  0.37762246293440677  0.5203092605653973  0.9580933549597909  1.0000
  O   O8        1.0  0.8929058667080699  0.911857914130827  0.3566932124777504  1.0000
  O   O9        1.0  0.12593924945360668  0.9375032252275037  0.45334945821962913  1.0000
  O   O10       1.0  0.6831650169339095  0.519022359408216  0.06193268437399846  1.0000
  O   O11       1.0  0.9042775248551267  0.15552911744498052  0.9259486825270451  1.0000
  O   O12       1.0  0.6318797897372647  0.5514006663262652  0.5961896589692322  1.0000
data_image187
_chemical_formula_structural       Cd4S4O12
_chemical_formula_sum              "Cd4 S4 O12"
_cell_length_a       9.025715
_cell_length_b       4.573479000000001
_cell_length_c       7.283293351582442
_cell_angle_alpha    88.92985652425466
_cell_angle_beta     90.0
_cell_angle_gamma    90.0

_space_group_name_H-M_alt    "P 1"
_space_group_IT_number       1

loop_
  _space_group_symop_operation_xyz
  'x, y, z'

loop_
  _atom_site_type_symbol
  _atom_site_label
  _atom_site_symmetry_multiplicity
  _atom_site_fract_x
  _atom_site_fract_y
  _atom_site_fract_z
  _atom_site_occupancy
  Cd  Cd1       1.0  0.6820652959834853  0.3010844291805521  0.17607140717570172  1.0000
  Cd  Cd2       1.0  0.07517024848269839  0.6125703558557952  0.3248239369120128  1.0000
  Cd  Cd3       1.0  0.26246914870254157  0.7107746784441238  0.7665680724925186  1.0000
  Cd  Cd4       1.0  0.8604492909735427  0.49134783222313555  0.7456004113123738  1.0000
  S   S1        1.0  0.5282970825929816  0.18172254061736284  0.48034211216851147  1.0000
  S   S2        1.0  0.0506782821762092  0.05447060295993056  0.0038156895256108016  1.0000
  S   S3        1.0  0.5335507197250103  0.7521636187671061  0.9718652215086157  1.0000
  S   S4        1.0  0.9166909525850258  0.9830592533530688  0.538896194314979  1.0000
  O   O1        1.0  0.16138681757843787  0.2230329559818685  0.8888088814625681  1.0000
  O   O2        1.0  0.3892648366163907  0.43403822088213045  0.47714336523808193  1.0000
  O   O3        1.0  0.9771299842144118  0.2876095744875759  0.46107211720787905  1.0000
  O   O4        1.0  0.09585109741680742  0.11151204022047323  0.1999335472068695  1.0000
  O   O5        1.0  0.46244454183808803  0.9743518345830736  0.6171443396681549  1.0000
  O   O6        1.0  0.039994970782978284  0.7108445096035119  0.9841807717776156  1.0000
  O   O7        1.0  0.44682872043302657  0.5115842420667567  0.8885103141932579  1.0000
  O   O8        1.0  0.8479486067823556  0.9068778593414963  0.3710021788554449  1.0000
  O   O9        1.0  0.07450442286181391  0.8427897544921528  0.6059243121358615  1.0000
  O   O10       1.0  0.722513584727933  0.6645959082933606  0.9746158164523094  1.0000
  O   O11       1.0  0.8937439568461285  0.11596048459508358  0.9468873571837161  1.0000
  O   O12       1.0  0.6642825846454107  0.31431420684813854  0.5231723491631507  1.0000
data_image188
_chemical_formula_structural       Cd4S4O12
_chemical_formula_sum              "Cd4 S4 O12"
_cell_length_a       9.025715
_cell_length_b       4.573479000000001
_cell_length_c       7.283293351582442
_cell_angle_alpha    88.92985652425466
_cell_angle_beta     90.0
_cell_angle_gamma    90.0

_space_group_name_H-M_alt    "P 1"
_space_group_IT_number       1

loop_
  _space_group_symop_operation_xyz
  'x, y, z'

loop_
  _atom_site_type_symbol
  _atom_site_label
  _atom_site_symmetry_multiplicity
  _atom_site_fract_x
  _atom_site_fract_y
  _atom_site_fract_z
  _atom_site_occupancy
  Cd  Cd1       1.0  0.7044986997093371  0.3511077676257257  0.2521688664243863  1.0000
  Cd  Cd2       1.0  0.08574737097745436  0.5588308843056986  0.29304839490681045  1.0000
  Cd  Cd3       1.0  0.3207630478940247  0.7036444671347996  0.7599620030824156  1.0000
  Cd  Cd4       1.0  0.8259241929160062  0.4494105857390567  0.733569555314311  1.0000
  S   S1        1.0  0.4549397154173659  0.3085130866184284  0.4750451781341045  1.0000
  S   S2        1.0  0.08268366596882608  0.11531684892540107  0.9738670310500634  1.0000
  S   S3        1.0  0.5130907803655013  0.6323345354809873  0.052469485110362646  1.0000
  S   S4        1.0  0.8845450011817968  0.9002457780527545  0.4839761699845542  1.0000
  O   O1        1.0  0.18562308582869247  0.2507070207394169  0.8321254440084651  1.0000
  O   O2        1.0  0.3420145046047157  0.5778750608027727  0.4540791700125987  1.0000
  O   O3        1.0  0.9179861274086341  0.24058760059343273  0.4423715188415709  1.0000
  O   O4        1.0  0.14828082752882876  0.2135848921048511  0.17444071395526617  1.0000
  O   O5        1.0  0.40620247295165074  0.13404732477262105  0.6473693905283355  1.0000
  O   O6        1.0  0.08998986898044449  0.7958053620150478  0.9680784948024292  1.0000
  O   O7        1.0  0.42465503928598913  0.34936701932779585  0.021276254044527487  1.0000
  O   O8        1.0  0.8395273017683277  0.7770343844809874  0.2735732272361815  1.0000
  O   O9        1.0  0.03482282536945447  0.7474313774728926  0.5730522784087715  1.0000
  O   O10       1.0  0.6529506533798652  0.7178273308650063  0.917488574074645  1.0000
  O   O11       1.0  0.9381488253169115  0.21720686256542265  0.9407503934265139  1.0000
  O   O12       1.0  0.5886095094690146  0.48811062561513013  0.5173722374818679  1.0000
data_image189
_chemical_formula_structural       Cd4S4O12
_chemical_formula_sum              "Cd4 S4 O12"
_cell_length_a       9.025715
_cell_length_b       4.573479000000001
_cell_length_c       7.283293351582442
_cell_angle_alpha    88.92985652425466
_cell_angle_beta     90.0
_cell_angle_gamma    90.0

_space_group_name_H-M_alt    "P 1"
_space_group_IT_number       1

loop_
  _space_group_symop_operation_xyz
  'x, y, z'

loop_
  _atom_site_type_symbol
  _atom_site_label
  _atom_site_symmetry_multiplicity
  _atom_site_fract_x
  _atom_site_fract_y
  _atom_site_fract_z
  _atom_site_occupancy
  Cd  Cd1       1.0  0.736276984551306  0.3629133971288391  0.2446232898554488  1.0000
  Cd  Cd2       1.0  0.11189512768229  0.5171656815159347  0.29743650384016745  1.0000
  Cd  Cd3       1.0  0.3684320431653236  0.7675466491739136  0.7521224175669947  1.0000
  Cd  Cd4       1.0  0.7678916097553456  0.471503152982433  0.7214944491387367  1.0000
  S   S1        1.0  0.4144795842003452  0.3115792909706413  0.4307654799481325  1.0000
  S   S2        1.0  0.012065257690971352  0.04572153621855868  0.0002458088504632168  1.0000
  S   S3        1.0  0.5819853615251622  0.6117352558517153  0.052399082543158615  1.0000
  S   S4        1.0  0.9159487553744192  0.8496548449276577  0.5451067481272457  1.0000
  O   O1        1.0  0.09413879412027937  0.1499049402291176  0.8398120978543212  1.0000
  O   O2        1.0  0.3485863887125025  0.6248318528007667  0.43383508277852534  1.0000
  O   O3        1.0  0.9052616628536876  0.1839900112616497  0.5300949533062371  1.0000
  O   O4        1.0  0.09167409988575836  0.11824701149581962  0.15751022719007923  1.0000
  O   O5        1.0  0.36290118549482553  0.20218545177472236  0.620809519773076  1.0000
  O   O6        1.0  0.9895656108030503  0.727939441675945  0.03741017191234891  1.0000
  O   O7        1.0  0.43389267364407336  0.512485691370866  0.9696350178361717  1.0000
  O   O8        1.0  0.8576179731440472  0.7841241454916884  0.332302562237414  1.0000
  O   O9        1.0  0.09345664596809078  0.7331898005197768  0.5612599930360712  1.0000
  O   O10       1.0  0.6585122702931937  0.8033918749587003  0.9024043317027068  1.0000
  O   O11       1.0  0.8619797591938785  0.11665129639506737  0.9950035375419064  1.0000
  O   O12       1.0  0.5640908343322852  0.43430562487445634  0.46064101615446845  1.0000
data_image190
_chemical_formula_structural       Cd4S4O12
_chemical_formula_sum              "Cd4 S4 O12"
_cell_length_a       9.025715
_cell_length_b       4.573479000000001
_cell_length_c       7.283293351582442
_cell_angle_alpha    88.92985652425466
_cell_angle_beta     90.0
_cell_angle_gamma    90.0

_space_group_name_H-M_alt    "P 1"
_space_group_IT_number       1

loop_
  _space_group_symop_operation_xyz
  'x, y, z'

loop_
  _atom_site_type_symbol
  _atom_site_label
  _atom_site_symmetry_multiplicity
  _atom_site_fract_x
  _atom_site_fract_y
  _atom_site_fract_z
  _atom_site_occupancy
  Cd  Cd1       1.0  0.7701900366920237  0.24779517570001958  0.2551511576298026  1.0000
  Cd  Cd2       1.0  0.10945380257935279  0.6257740839929721  0.2631230210252434  1.0000
  Cd  Cd3       1.0  0.39571545587002704  0.8621958086106843  0.75735241000404  1.0000
  Cd  Cd4       1.0  0.7710582327374993  0.4341519317412036  0.7435808978999238  1.0000
  S   S1        1.0  0.4171648441035395  0.284456713085991  0.41973967620226854  1.0000
  S   S2        1.0  0.9684554103305448  0.9428778010248653  0.008187741434333713  1.0000
  S   S3        1.0  0.5356675276878339  0.7416636596625219  0.04163806233562983  1.0000
  S   S4        1.0  0.8909028842153164  0.857089868405904  0.5451694273062463  1.0000
  O   O1        1.0  0.11703966763808205  0.9321418845479927  0.9096785947019224  1.0000
  O   O2        1.0  0.33448256902160917  0.5363400629274365  0.3240553890155075  1.0000
  O   O3        1.0  0.8864537741868309  0.21713467348703197  0.5250248482285647  1.0000
  O   O4        1.0  0.0036343298106040756  0.0799674948025364  0.18587920186496998  1.0000
  O   O5        1.0  0.3422012238996201  0.3338256351332407  0.6377805867698993  1.0000
  O   O6        1.0  0.9378706274961124  0.5965696463176671  0.03135139307017101  1.0000
  O   O7        1.0  0.529255281223263  0.41411106808060044  0.06655448582799228  1.0000
  O   O8        1.0  0.8277189834353731  0.7879643596899731  0.3358983259867294  1.0000
  O   O9        1.0  0.054500030345303596  0.8382456019443769  0.5614552106093476  1.0000
  O   O10       1.0  0.6268468533444246  0.7753512794825987  0.8432404351028913  1.0000
  O   O11       1.0  0.8189598501446933  0.10922851010917038  0.9461486188668398  1.0000
  O   O12       1.0  0.5739107777548306  0.39497183464534896  0.4717865444380888  1.0000
data_image191
_chemical_formula_structural       Cd4S4O12
_chemical_formula_sum              "Cd4 S4 O12"
_cell_length_a       9.025715
_cell_length_b       4.573479000000001
_cell_length_c       7.283293351582442
_cell_angle_alpha    88.92985652425466
_cell_angle_beta     90.0
_cell_angle_gamma    90.0

_space_group_name_H-M_alt    "P 1"
_space_group_IT_number       1

loop_
  _space_group_symop_operation_xyz
  'x, y, z'

loop_
  _atom_site_type_symbol
  _atom_site_label
  _atom_site_symmetry_multiplicity
  _atom_site_fract_x
  _atom_site_fract_y
  _atom_site_fract_z
  _atom_site_occupancy
  Cd  Cd1       1.0  0.7826954707966183  0.22992412377444518  0.2784054185174608  1.0000
  Cd  Cd2       1.0  0.1278061108554487  0.585860789313397  0.2638076913245376  1.0000
  Cd  Cd3       1.0  0.33778076249717304  0.9019740065607325  0.7210716519231775  1.0000
  Cd  Cd4       1.0  0.7257377313986522  0.45881122760295606  0.7400860184990169  1.0000
  S   S1        1.0  0.4044943212862163  0.367424034584272  0.4427788287035951  1.0000
  S   S2        1.0  0.04392922490927291  0.05331263167930115  0.9904816503820383  1.0000
  S   S3        1.0  0.5446319301091098  0.5802249254385978  0.036792078089388225  1.0000
  S   S4        1.0  0.9027827722500409  0.8019870354679798  0.570926449556916  1.0000
  O   O1        1.0  0.17351128059213683  0.17644337206296298  0.8970559783437159  1.0000
  O   O2        1.0  0.33997173544794573  0.6453636116653682  0.39053545215560564  1.0000
  O   O3        1.0  0.9144374144691764  0.14776501046655807  0.5602489671507033  1.0000
  O   O4        1.0  0.01487960566033042  0.12954796990683093  0.20037290988943557  1.0000
  O   O5        1.0  0.36788145785423393  0.3519392285582932  0.6502550712847881  1.0000
  O   O6        1.0  0.06305675031341605  0.7137468769993567  0.004860861399334401  1.0000
  O   O7        1.0  0.634078824251576  0.28671503323264225  0.036662748406497414  1.0000
  O   O8        1.0  0.807493675735069  0.6851794786756317  0.40055120605172795  1.0000
  O   O9        1.0  0.04944173443256594  0.6740903058798766  0.5547892471969519  1.0000
  O   O10       1.0  0.5364818416012289  0.6862285216110409  0.8386800613295382  1.0000
  O   O11       1.0  0.9012596746698389  0.17010590030920672  0.8978702480222305  1.0000
  O   O12       1.0  0.5808590919972166  0.3422973205457067  0.4589765975031176  1.0000
data_image192
_chemical_formula_structural       Cd4S4O12
_chemical_formula_sum              "Cd4 S4 O12"
_cell_length_a       9.025715
_cell_length_b       4.573479000000001
_cell_length_c       7.283293351582442
_cell_angle_alpha    88.92985652425466
_cell_angle_beta     90.0
_cell_angle_gamma    90.0

_space_group_name_H-M_alt    "P 1"
_space_group_IT_number       1

loop_
  _space_group_symop_operation_xyz
  'x, y, z'

loop_
  _atom_site_type_symbol
  _atom_site_label
  _atom_site_symmetry_multiplicity
  _atom_site_fract_x
  _atom_site_fract_y
  _atom_site_fract_z
  _atom_site_occupancy
  Cd  Cd1       1.0  0.7762398142466552  0.29552544560232324  0.2821305769059798  1.0000
  Cd  Cd2       1.0  0.13807892563270427  0.6377333672789046  0.3019669253595317  1.0000
  Cd  Cd3       1.0  0.29880509195827787  0.7218151038769192  0.6289285107867068  1.0000
  Cd  Cd4       1.0  0.6968005207651051  0.3544228939032757  0.7249387497426417  1.0000
  S   S1        1.0  0.4468036871193307  0.3989822442400455  0.3738285551610511  1.0000
  S   S2        1.0  0.09484068549767777  0.18740108100697422  0.0767997019321696  1.0000
  S   S3        1.0  0.5012252795185289  0.5935890304899076  0.028602143560777726  1.0000
  S   S4        1.0  0.9367039537675076  0.8481866738621779  0.618416490329654  1.0000
  O   O1        1.0  0.16562695995798138  0.3747612404861694  0.9374886863295465  1.0000
  O   O2        1.0  0.44118155533451764  0.7190375787388084  0.3661759143841352  1.0000
  O   O3        1.0  0.882066788405689  0.19432173616162723  0.61442259562392  1.0000
  O   O4        1.0  0.13283383453986697  0.1881358568198852  0.27607298951354187  1.0000
  O   O5        1.0  0.320307607585306  0.29087889608754836  0.5387208025155907  1.0000
  O   O6        1.0  0.13440135837141703  0.8648288756213711  0.030438290003766726  1.0000
  O   O7        1.0  0.5747283244421385  0.3276300957601342  0.07292901060641332  1.0000
  O   O8        1.0  0.8851467359103562  0.7370980085745303  0.43640281177253126  1.0000
  O   O9        1.0  0.1091890546565184  0.9156263615938329  0.5812058463254581  1.0000
  O   O10       1.0  0.4905091609880056  0.582844107825877  0.8298495700976232  1.0000
  O   O11       1.0  0.9353935011885338  0.21106930954712474  0.0670403257277342  1.0000
  O   O12       1.0  0.592527117852569  0.2974285611283889  0.47254753531356325  1.0000
data_image193
_chemical_formula_structural       Cd4S4O12
_chemical_formula_sum              "Cd4 S4 O12"
_cell_length_a       9.025715
_cell_length_b       4.573479000000001
_cell_length_c       7.283293351582442
_cell_angle_alpha    88.92985652425466
_cell_angle_beta     90.0
_cell_angle_gamma    90.0

_space_group_name_H-M_alt    "P 1"
_space_group_IT_number       1

loop_
  _space_group_symop_operation_xyz
  'x, y, z'

loop_
  _atom_site_type_symbol
  _atom_site_label
  _atom_site_symmetry_multiplicity
  _atom_site_fract_x
  _atom_site_fract_y
  _atom_site_fract_z
  _atom_site_occupancy
  Cd  Cd1       1.0  0.8278369047926692  0.34229551500586797  0.31310517973386226  1.0000
  Cd  Cd2       1.0  0.08824696278715051  0.6502270465026381  0.2724066671428553  1.0000
  Cd  Cd3       1.0  0.2608075732675222  0.7076927371075249  0.6001640094870156  1.0000
  Cd  Cd4       1.0  0.6377042350504327  0.1842442137748508  0.7787123730542689  1.0000
  S   S1        1.0  0.4720520526464553  0.25458193536077056  0.4040887335659528  1.0000
  S   S2        1.0  0.13943570856497184  0.2334882271420161  0.04582949844262876  1.0000
  S   S3        1.0  0.5251335805134304  0.5620555406955356  0.9779917629738251  1.0000
  S   S4        1.0  0.926482123949143  0.025321214712928725  0.6164981154890695  1.0000
  O   O1        1.0  0.2290922035153269  0.44664862880587064  0.9327242369170333  1.0000
  O   O2        1.0  0.4754070139227681  0.6119815510499147  0.34066024090225877  1.0000
  O   O3        1.0  0.9009787302503239  0.36270380999329677  0.6582639631380903  1.0000
  O   O4        1.0  0.1995305881189291  0.25724488929088274  0.2460178574017684  1.0000
  O   O5        1.0  0.3994465729694942  0.26753313758706576  0.590561857803243  1.0000
  O   O6        1.0  0.15002637466790314  0.931259568351243  0.9778281539206843  1.0000
  O   O7        1.0  0.6534946628348481  0.44376453739963656  0.08474291524328903  1.0000
  O   O8        1.0  0.8876986360651123  0.8577495392399802  0.3839557460123423  1.0000
  O   O9        1.0  0.10162991991224435  0.012383435167380732  0.5799939320812707  1.0000
  O   O10       1.0  0.5554884163307975  0.7733074279414764  0.8468604960896835  1.0000
  O   O11       1.0  0.9818971097139512  0.34995661404438344  0.035066889595859144  1.0000
  O   O12       1.0  0.6307252089215631  0.1615221107583158  0.4619612860283878  1.0000
data_image194
_chemical_formula_structural       Cd4S4O12
_chemical_formula_sum              "Cd4 S4 O12"
_cell_length_a       9.025715
_cell_length_b       4.573479000000001
_cell_length_c       7.283293351582442
_cell_angle_alpha    88.92985652425466
_cell_angle_beta     90.0
_cell_angle_gamma    90.0

_space_group_name_H-M_alt    "P 1"
_space_group_IT_number       1

loop_
  _space_group_symop_operation_xyz
  'x, y, z'

loop_
  _atom_site_type_symbol
  _atom_site_label
  _atom_site_symmetry_multiplicity
  _atom_site_fract_x
  _atom_site_fract_y
  _atom_site_fract_z
  _atom_site_occupancy
  Cd  Cd1       1.0  0.8067368577428772  0.480423104551699  0.3786725854520054  1.0000
  Cd  Cd2       1.0  0.08805165587948632  0.7125439391695106  0.24492809774596228  1.0000
  Cd  Cd3       1.0  0.2255354178350119  0.6663689774849166  0.6286442960424563  1.0000
  Cd  Cd4       1.0  0.5820558148092756  0.2023341923756457  0.790366438076837  1.0000
  S   S1        1.0  0.48220531238217046  0.09490850142074551  0.4079735652118994  1.0000
  S   S2        1.0  0.2118864370267331  0.1859645908447776  0.9619833237661426  1.0000
  S   S3        1.0  0.5571036326191067  0.499565743465624  0.05496515892785658  1.0000
  S   S4        1.0  0.9852743779849417  0.9782190585751829  0.5896405941142411  1.0000
  O   O1        1.0  0.33102543895338  0.33712142579372684  0.8297326852768372  1.0000
  O   O2        1.0  0.5403027331650333  0.7116245917408842  0.23555649980894586  1.0000
  O   O3        1.0  0.8762546069966148  0.15358200729659635  0.6685734698940763  1.0000
  O   O4        1.0  0.26330592545620135  0.09024737743529032  0.15087557588344103  1.0000
  O   O5        1.0  0.3984753005021302  0.8962117061480448  0.5281134374950665  1.0000
  O   O6        1.0  0.1834268747580326  0.9201674927606696  0.8676417160835563  1.0000
  O   O7        1.0  0.6970987520779034  0.33262364550873275  0.12203141873979395  1.0000
  O   O8        1.0  0.9162579494819624  0.9078217280345627  0.3614420482867315  1.0000
  O   O9        1.0  0.0818031526848777  0.20976085951994766  0.5123951702985462  1.0000
  O   O10       1.0  0.6076859204998831  0.7125174192370574  0.8954060326529034  1.0000
  O   O11       1.0  0.08778079411214036  0.39873177220244255  0.9930584360108335  1.0000
  O   O12       1.0  0.6221790253109429  0.19206196369539458  0.4876034793356157  1.0000
data_image195
_chemical_formula_structural       Cd4S4O12
_chemical_formula_sum              "Cd4 S4 O12"
_cell_length_a       9.025715
_cell_length_b       4.573479000000001
_cell_length_c       7.283293351582442
_cell_angle_alpha    88.92985652425466
_cell_angle_beta     90.0
_cell_angle_gamma    90.0

_space_group_name_H-M_alt    "P 1"
_space_group_IT_number       1

loop_
  _space_group_symop_operation_xyz
  'x, y, z'

loop_
  _atom_site_type_symbol
  _atom_site_label
  _atom_site_symmetry_multiplicity
  _atom_site_fract_x
  _atom_site_fract_y
  _atom_site_fract_z
  _atom_site_occupancy
  Cd  Cd1       1.0  0.7363176241312166  0.5265646005505082  0.39844688307576553  1.0000
  Cd  Cd2       1.0  0.10924647498871044  0.6973564314314002  0.23558764117788697  1.0000
  Cd  Cd3       1.0  0.21524073468149638  0.5749480281327133  0.6513994344267292  1.0000
  Cd  Cd4       1.0  0.6014493267954995  0.17780790696967638  0.7843334551127715  1.0000
  S   S1        1.0  0.44552426324970207  0.0009633226693994036  0.4043626833965798  1.0000
  S   S2        1.0  0.22364864259625983  0.19815110468930416  0.9627947493844006  1.0000
  S   S3        1.0  0.6039366805204048  0.6443109837644516  0.06125267804312795  1.0000
  S   S4        1.0  0.007488906574107945  0.06873480530996137  0.5439665938079221  1.0000
  O   O1        1.0  0.3426983933793353  0.3156095262836838  0.8271871235382877  1.0000
  O   O2        1.0  0.706009208666764  0.8625832413797194  0.17557735635121874  1.0000
  O   O3        1.0  0.8949326075886076  0.14379907757842253  0.6772934124592151  1.0000
  O   O4        1.0  0.28140127103051826  0.16061106794012425  0.15119421148716783  1.0000
  O   O5        1.0  0.40285257353009685  0.8431855181518829  0.5906515246816535  1.0000
  O   O6        1.0  0.18790746042252765  0.9075762087835113  0.8980638176690873  1.0000
  O   O7        1.0  0.6920822447241611  0.3246068065863475  0.06996792635907356  1.0000
  O   O8        1.0  0.9193538979327177  0.8520566657248717  0.40389878458730194  1.0000
  O   O9        1.0  0.04251104881582335  0.3752859198728896  0.434272840731902  1.0000
  O   O10       1.0  0.6344113084527191  0.7334377763077069  0.8691608035728079  1.0000
  O   O11       1.0  0.11169216785586085  0.43992006674269224  0.9812527894028783  1.0000
  O   O12       1.0  0.5804450378348078  0.19102771100532154  0.4631777478149429  1.0000
data_image196
_chemical_formula_structural       Cd4S4O12
_chemical_formula_sum              "Cd4 S4 O12"
_cell_length_a       9.025715
_cell_length_b       4.573479000000001
_cell_length_c       7.283293351582442
_cell_angle_alpha    88.92985652425466
_cell_angle_beta     90.0
_cell_angle_gamma    90.0

_space_group_name_H-M_alt    "P 1"
_space_group_IT_number       1

loop_
  _space_group_symop_operation_xyz
  'x, y, z'

loop_
  _atom_site_type_symbol
  _atom_site_label
  _atom_site_symmetry_multiplicity
  _atom_site_fract_x
  _atom_site_fract_y
  _atom_site_fract_z
  _atom_site_occupancy
  Cd  Cd1       1.0  0.7724461811759068  0.3884029745799889  0.38716318123007043  1.0000
  Cd  Cd2       1.0  0.10564057313178993  0.7480857959517725  0.24115759529683986  1.0000
  Cd  Cd3       1.0  0.21286497871604645  0.7306498889765471  0.6447679309138821  1.0000
  Cd  Cd4       1.0  0.5970760650813742  0.16036443344755227  0.7473288503233579  1.0000
  S   S1        1.0  0.5093681949210193  0.9153825869997507  0.49716402075848065  1.0000
  S   S2        1.0  0.19270554677872662  0.26632254895388324  0.014871980705436091  1.0000
  S   S3        1.0  0.6303359629887435  0.5881539189155913  0.012942766389764548  1.0000
  S   S4        1.0  0.983677523968049  0.051869159069130866  0.5535929247752154  1.0000
  O   O1        1.0  0.3387717480111452  0.2678470098325529  0.9270750696091945  1.0000
  O   O2        1.0  0.7666158433268366  0.6842936668075138  0.14249988387705162  1.0000
  O   O3        1.0  0.8277561051059299  0.10944434631707138  0.6056303655216917  1.0000
  O   O4        1.0  0.21653356025765413  0.23956392582994468  0.2077139357180917  1.0000
  O   O5        1.0  0.44399111674582514  0.7697727723683897  0.6688528842825392  1.0000
  O   O6        1.0  0.12958934481463175  0.010271012106296551  0.9335652716295051  1.0000
  O   O7        1.0  0.6117524730518918  0.27252912417135056  0.06991383200000545  1.0000
  O   O8        1.0  0.9304104984913155  0.973388788019104  0.3370440998195636  1.0000
  O   O9        1.0  0.06003472815502153  0.31311877157446344  0.5536248672344308  1.0000
  O   O10       1.0  0.718925297633495  0.6279456447257756  0.8139456674266659  1.0000
  O   O11       1.0  0.06272345457642547  0.510345636970603  0.9659237772005989  1.0000
  O   O12       1.0  0.44245791096468684  0.19891930914180792  0.4316863516282906  1.0000
data_image197
_chemical_formula_structural       Cd4S4O12
_chemical_formula_sum              "Cd4 S4 O12"
_cell_length_a       9.025715
_cell_length_b       4.573479000000001
_cell_length_c       7.283293351582442
_cell_angle_alpha    88.92985652425466
_cell_angle_beta     90.0
_cell_angle_gamma    90.0

_space_group_name_H-M_alt    "P 1"
_space_group_IT_number       1

loop_
  _space_group_symop_operation_xyz
  'x, y, z'

loop_
  _atom_site_type_symbol
  _atom_site_label
  _atom_site_symmetry_multiplicity
  _atom_site_fract_x
  _atom_site_fract_y
  _atom_site_fract_z
  _atom_site_occupancy
  Cd  Cd1       1.0  0.7475154529766292  0.3415009857617701  0.3763958477650483  1.0000
  Cd  Cd2       1.0  0.047798383026479825  0.7531090128809359  0.19206377611044254  1.0000
  Cd  Cd3       1.0  0.2036698441762692  0.7124563825552371  0.684115174498823  1.0000
  Cd  Cd4       1.0  0.589544218292622  0.13073609618502152  0.8090161568827965  1.0000
  S   S1        1.0  0.5370417682516804  0.851121715713844  0.43350992328436727  1.0000
  S   S2        1.0  0.2158315066888271  0.3092785935956705  0.9860206294532056  1.0000
  S   S3        1.0  0.6617467859402355  0.5682822297213139  0.060447280530824044  1.0000
  S   S4        1.0  0.003586747600306417  0.13652667038308167  0.5312213992119094  1.0000
  O   O1        1.0  0.3448797340489249  0.4546110480844281  0.8704441659317492  1.0000
  O   O2        1.0  0.8124640865985314  0.653315538419958  0.128009157376154  1.0000
  O   O3        1.0  0.8832999239090665  0.3298744540130328  0.6330524649265145  1.0000
  O   O4        1.0  0.25338556463138406  0.36863883734480263  0.1599381287480066  1.0000
  O   O5        1.0  0.4549810446217261  0.771893126092965  0.6105332948050761  1.0000
  O   O6        1.0  0.21100809315110539  0.015256077176921679  0.9212281360101655  1.0000
  O   O7        1.0  0.6676046261908575  0.21967071464772506  0.052371328576391596  1.0000
  O   O8        1.0  0.9810187883761304  0.1467320588922436  0.28836167108060073  1.0000
  O   O9        1.0  0.15321877940861572  0.2759403216894604  0.5587836506459243  1.0000
  O   O10       1.0  0.6518582944351421  0.6244428392679755  0.8546597303661904  1.0000
  O   O11       1.0  0.06826595639776467  0.4596577251099182  0.9647309830666019  1.0000
  O   O12       1.0  0.5590454498027108  0.19157358016988554  0.4571943242810141  1.0000
data_image198
_chemical_formula_structural       Cd4S4O12
_chemical_formula_sum              "Cd4 S4 O12"
_cell_length_a       9.025715
_cell_length_b       4.573479000000001
_cell_length_c       7.283293351582442
_cell_angle_alpha    88.92985652425466
_cell_angle_beta     90.0
_cell_angle_gamma    90.0

_space_group_name_H-M_alt    "P 1"
_space_group_IT_number       1

loop_
  _space_group_symop_operation_xyz
  'x, y, z'

loop_
  _atom_site_type_symbol
  _atom_site_label
  _atom_site_symmetry_multiplicity
  _atom_site_fract_x
  _atom_site_fract_y
  _atom_site_fract_z
  _atom_site_occupancy
  Cd  Cd1       1.0  0.7448308576037742  0.39949806719525843  0.3997544704453544  1.0000
  Cd  Cd2       1.0  0.0358602057747213  0.6947662365410225  0.15883603612698452  1.0000
  Cd  Cd3       1.0  0.18020273473322146  0.7817754823124725  0.6902313993357239  1.0000
  Cd  Cd4       1.0  0.6177605131870395  0.09613102252147544  0.7149291492487928  1.0000
  S   S1        1.0  0.392160139667304  0.8553077490517006  0.44638211270311057  1.0000
  S   S2        1.0  0.27367665573916145  0.25199388775331505  0.07460028554571906  1.0000
  S   S3        1.0  0.6397407401150096  0.5979570624221704  0.03746730675334309  1.0000
  S   S4        1.0  0.05439604927944819  0.12668357256765164  0.547465681580072  1.0000
  O   O1        1.0  0.35629893135631985  0.2559830468644373  0.9193639125106234  1.0000
  O   O2        1.0  0.7825183566002922  0.6817573351233348  0.18986413790265425  1.0000
  O   O3        1.0  0.9011089078719109  0.2844600905924487  0.6247919959938619  1.0000
  O   O4        1.0  0.31600342948203886  0.4967679283689457  0.2187037726214236  1.0000
  O   O5        1.0  0.4510499865375617  0.636368646206795  0.6077967064825771  1.0000
  O   O6        1.0  0.24379531837071214  0.9918416909091043  0.20163844008009957  1.0000
  O   O7        1.0  0.6584456196597349  0.2874329262773873  0.051331210271443606  1.0000
  O   O8        1.0  0.003094772278237068  0.10374607059958363  0.3397276234835416  1.0000
  O   O9        1.0  0.1780962613558703  0.3352241134050219  0.5653500946958383  1.0000
  O   O10       1.0  0.7208804503651065  0.7443567162053482  0.8463367315978757  1.0000
  O   O11       1.0  0.11233024085656475  0.3229397911471239  0.9840469696267693  1.0000
  O   O12       1.0  0.5088056765758083  0.19995501533246068  0.44605332393056485  1.0000
data_image199
_chemical_formula_structural       Cd4S4O12
_chemical_formula_sum              "Cd4 S4 O12"
_cell_length_a       9.025715
_cell_length_b       4.573479000000001
_cell_length_c       7.283293351582442
_cell_angle_alpha    88.92985652425466
_cell_angle_beta     90.0
_cell_angle_gamma    90.0

_space_group_name_H-M_alt    "P 1"
_space_group_IT_number       1

loop_
  _space_group_symop_operation_xyz
  'x, y, z'

loop_
  _atom_site_type_symbol
  _atom_site_label
  _atom_site_symmetry_multiplicity
  _atom_site_fract_x
  _atom_site_fract_y
  _atom_site_fract_z
  _atom_site_occupancy
  Cd  Cd1       1.0  0.7612671804616145  0.4480454527868095  0.3975144928914501  1.0000
  Cd  Cd2       1.0  0.04271591040326541  0.6777559005547845  0.15264377411780325  1.0000
  Cd  Cd3       1.0  0.18961130691039937  0.7111012383472315  0.7585625403951571  1.0000
  Cd  Cd4       1.0  0.632261963734459  0.1751025449955417  0.6824914327998116  1.0000
  S   S1        1.0  0.40205526690832705  0.7693769869631117  0.49892603698081806  1.0000
  S   S2        1.0  0.2464251912879634  0.22689059618725574  0.032100148423059506  1.0000
  S   S3        1.0  0.6286358426048245  0.6724126499066465  0.02410153976615148  1.0000
  S   S4        1.0  0.006780792770285871  0.17619988901385808  0.5640934250034337  1.0000
  O   O1        1.0  0.3380834208108303  0.9973268270919671  0.9392876244369719  1.0000
  O   O2        1.0  0.8136701889161144  0.63377325015783  0.138356405669753  1.0000
  O   O3        1.0  0.8836026339236784  0.22664197037097814  0.6895103858463558  1.0000
  O   O4        1.0  0.30843921143036335  0.5001277451601025  0.07147112847306936  1.0000
  O   O5        1.0  0.48538157220859846  0.5879434729925058  0.6478745672817928  1.0000
  O   O6        1.0  0.2207427326650977  0.9984213346870945  0.21863649683617276  1.0000
  O   O7        1.0  0.5975490189969785  0.37222255058270015  0.98459812927729  1.0000
  O   O8        1.0  0.9523122472539669  0.1193483478977102  0.36533182713463197  1.0000
  O   O9        1.0  0.09293889868079885  0.5228904135391553  0.5225218859299999  1.0000
  O   O10       1.0  0.6843370942908062  0.8013563605316707  0.8387723334927036  1.0000
  O   O11       1.0  0.09087530822217123  0.25176519529899466  0.9533474434729964  1.0000
  O   O12       1.0  0.589610864637915  0.0135588761291116  0.3999707989694669  1.0000
data_image200
_chemical_formula_structural       Cd4S4O12
_chemical_formula_sum              "Cd4 S4 O12"
_cell_length_a       9.025715
_cell_length_b       4.573479000000001
_cell_length_c       7.283293351582442
_cell_angle_alpha    88.92985652425466
_cell_angle_beta     90.0
_cell_angle_gamma    90.0

_space_group_name_H-M_alt    "P 1"
_space_group_IT_number       1

loop_
  _space_group_symop_operation_xyz
  'x, y, z'

loop_
  _atom_site_type_symbol
  _atom_site_label
  _atom_site_symmetry_multiplicity
  _atom_site_fract_x
  _atom_site_fract_y
  _atom_site_fract_z
  _atom_site_occupancy
  Cd  Cd1       1.0  0.7564493066112981  0.4710362979171994  0.4054886241643992  1.0000
  Cd  Cd2       1.0  0.08439433067154657  0.6724841191094553  0.16720733319847483  1.0000
  Cd  Cd3       1.0  0.16206585973741694  0.6631264617624703  0.7342335374029243  1.0000
  Cd  Cd4       1.0  0.5978326748278907  0.23482797611518652  0.7494584956322979  1.0000
  S   S1        1.0  0.4636204723359386  0.7783376213986445  0.41840699143346244  1.0000
  S   S2        1.0  0.27108529187854635  0.2032060587549578  0.022035781339393296  1.0000
  S   S3        1.0  0.6822116978771494  0.6685778076369369  0.059667118588405677  1.0000
  S   S4        1.0  0.9889015838837902  0.12669304570408615  0.5041663649038923  1.0000
  O   O1        1.0  0.36269508450654997  0.10724153764004447  0.8658210154361797  1.0000
  O   O2        1.0  0.8651304910317653  0.5107065302282529  0.039719825143242675  1.0000
  O   O3        1.0  0.8844588122356144  0.24862893909905803  0.6388796955816649  1.0000
  O   O4        1.0  0.3134837764784355  0.46770268204605747  0.10957337435837466  1.0000
  O   O5        1.0  0.3700365941497984  0.6742603493029318  0.5704703950550476  1.0000
  O   O6        1.0  0.2417788179940309  0.9830094813972559  0.1820764087068081  1.0000
  O   O7        1.0  0.5971143403888848  0.39939922856677657  0.03720777792312191  1.0000
  O   O8        1.0  0.9114194184382227  0.04704579374203299  0.3248749651782066  1.0000
  O   O9        1.0  0.07009171479769294  0.43671649746723656  0.44373316353532116  1.0000
  O   O10       1.0  0.6454707065843338  0.8236464131756387  0.883468413949414  1.0000
  O   O11       1.0  0.12102452586183395  0.3281043498211239  0.9306183329334209  1.0000
  O   O12       1.0  0.6062266449664472  0.9112168002007105  0.5164448763656052  1.0000
